@<TRIPOS>MOLECULE
03
    97   114     1     0     0
SMALL
NO_CHARGES
****
Generated from the CSD

@<TRIPOS>ATOM
     1 Ir1      4.8890   6.9040  10.7055   Ir        1 RES1   0.0000
     2 N1       4.8890   9.0735  10.7055   N.2       1 RES1   0.0000
     3 N2       3.8310   7.1011   7.6791   N.pl3     1 RES1   0.0000
     4 N3       3.9325   5.1324   8.6235   N.pl3     1 RES1   0.0000
     5 N4       3.2572   3.7313   6.7626   N.2       1 RES1   0.0000
     6 O1       7.2055   9.1048  10.9740   O.3       1 RES1   0.0000
     7 C1       6.0359   9.7763  10.8177   C.2       1 RES1   0.0000
     8 C2       6.0811  11.1595  10.8515   C.2       1 RES1   0.0000
     9 H1       6.9033  11.6201  10.9711   H         1 RES1   0.0000
    10 C3       4.8890  11.8508  10.7055   C.2       1 RES1   0.0000
    11 H2       4.8890  12.8008  10.7054   H         1 RES1   0.0000
    12 C4       6.7387   7.0557   9.7306   C.3       1 RES1   0.0000
    13 C5       7.5554   8.1547   9.9811   C.2       1 RES1   0.0000
    14 C6       8.7875   8.3905   9.3846   C.2       1 RES1   0.0000
    15 H3       9.3016   9.1580   9.6062   H         1 RES1   0.0000
    16 C7       9.2426   7.4650   8.4522   C.2       1 RES1   0.0000
    17 C8       8.4624   6.3585   8.1269   C.2       1 RES1   0.0000
    18 H4       8.7672   5.7327   7.4803   H         1 RES1   0.0000
    19 C9       7.2357   6.1743   8.7525   C.2       1 RES1   0.0000
    20 H5       6.7097   5.4213   8.5098   H         1 RES1   0.0000
    21 C10     10.5553   7.6631   7.7650   C.3       1 RES1   0.0000
    22 C11      4.1155   6.4864   8.8538   C.3       1 RES1   0.0000
    23 C12      3.5312   4.9074   7.3154   C.2       1 RES1   0.0000
    24 C13      3.4620   6.1620   6.7062   C.2       1 RES1   0.0000
    25 C14      3.0716   6.2458   5.3820   C.2       1 RES1   0.0000
    26 H6       3.0103   7.0741   4.9206   H         1 RES1   0.0000
    27 C15      2.7746   5.0274   4.7726   C.2       1 RES1   0.0000
    28 H7       2.4970   5.0135   3.8642   H         1 RES1   0.0000
    29 C16      2.8793   3.8318   5.4755   C.2       1 RES1   0.0000
    30 H8       2.6681   3.0286   5.0144   H         1 RES1   0.0000
    31 C17      4.8890   4.9472  10.7055   C.3       1 RES1   0.0000
    32 C18      4.3624   4.2367   9.6303   C.2       1 RES1   0.0000
    33 C19      4.3368   2.8456   9.6052   C.2       1 RES1   0.0000
    34 H9       3.9617   2.3685   8.8745   H         1 RES1   0.0000
    35 C20      4.8890   2.1832  10.7055   C.2       1 RES1   0.0000
    36 C21      4.8890   0.6895  10.7055   C.3       1 RES1   0.0000
    37 C22      4.0555   8.5419   7.4389   C.3       1 RES1   0.0000
    38 H10      4.3349   8.9479   8.3090   H         1 RES1   0.0000
    39 C23      5.2036   8.7359   6.4604   C.3       1 RES1   0.0000
    40 H11      6.0084   8.3004   6.8117   H         1 RES1   0.0000
    41 H12      5.3747   9.6936   6.3441   H         1 RES1   0.0000
    42 H13      4.9672   8.3383   5.5970   H         1 RES1   0.0000
    43 C24      2.7745   9.2393   7.0057   C.3       1 RES1   0.0000
    44 H14      2.5227   8.9323   6.1094   H         1 RES1   0.0000
    45 H15      2.9196  10.2084   6.9897   H         1 RES1   0.0000
    46 H16      2.0567   9.0265   7.6375   H         1 RES1   0.0000
    47 F1      10.4141   8.0597   6.4938   F         1 RES1   0.0000
    48 F2      11.3182   8.5957   8.3293   F         1 RES1   0.0000
    49 F3      11.2900   6.5457   7.7379   F         1 RES1   0.0000
    50 F4       6.0459   0.1789  11.1622   F         1 RES1   0.0000
    51 F5       4.9249   0.1683   9.4593   F         1 RES1   0.0000
    52 F6       3.9552   0.1500  11.3535   F         1 RES1   0.0000
    53 O1A      2.5724   9.1048  10.4370   O.3       1 RES1   0.0000
    54 C1A      3.7420   9.7763  10.5933   C.2       1 RES1   0.0000
    55 C2A      3.6968  11.1595  10.5594   C.2       1 RES1   0.0000
    56 H1A      2.8746  11.6201  10.4398   H         1 RES1   0.0000
    57 C4A      3.0392   7.0557  11.6804   C.3       1 RES1   0.0000
    58 C5A      2.2225   8.1547  11.4299   C.2       1 RES1   0.0000
    59 C6A      0.9904   8.3905  12.0264   C.2       1 RES1   0.0000
    60 H3A      0.4763   9.1580  11.8047   H         1 RES1   0.0000
    61 C7A      0.5354   7.4650  12.9587   C.2       1 RES1   0.0000
    62 C8A      1.3156   6.3585  13.2841   C.2       1 RES1   0.0000
    63 H4A      1.0107   5.7327  13.9306   H         1 RES1   0.0000
    64 C9A      2.5423   6.1743  12.6584   C.2       1 RES1   0.0000
    65 H5A      3.0682   5.4213  12.9012   H         1 RES1   0.0000
    66 C10A    -0.7773   7.6631  13.6459   C.3       1 RES1   0.0000
    67 F1A     -0.6362   8.0597  14.9171   F         1 RES1   0.0000
    68 F2A     -1.5403   8.5957  13.0816   F         1 RES1   0.0000
    69 F3A     -1.5121   6.5457  13.6730   F         1 RES1   0.0000
    70 N2A      5.9469   7.1011  13.7318   N.pl3     1 RES1   0.0000
    71 N3A      5.8455   5.1324  12.7875   N.pl3     1 RES1   0.0000
    72 N4A      6.5207   3.7313  14.6484   N.2       1 RES1   0.0000
    73 C11A     5.6625   6.4864  12.5571   C.3       1 RES1   0.0000
    74 C12A     6.2467   4.9074  14.0955   C.2       1 RES1   0.0000
    75 C13A     6.3160   6.1620  14.7047   C.2       1 RES1   0.0000
    76 C14A     6.7064   6.2458  16.0289   C.2       1 RES1   0.0000
    77 H6A      6.7677   7.0741  16.4903   H         1 RES1   0.0000
    78 C15A     7.0034   5.0274  16.6383   C.2       1 RES1   0.0000
    79 H7A      7.2809   5.0135  17.5467   H         1 RES1   0.0000
    80 C16A     6.8986   3.8318  15.9354   C.2       1 RES1   0.0000
    81 H8A      7.1098   3.0286  16.3966   H         1 RES1   0.0000
    82 C18A     5.4156   4.2367  11.7806   C.2       1 RES1   0.0000
    83 C19A     5.4411   2.8456  11.8057   C.2       1 RES1   0.0000
    84 H9A      5.8162   2.3685  12.5364   H         1 RES1   0.0000
    85 C22A     5.7225   8.5419  13.9721   C.3       1 RES1   0.0000
    86 H10A     5.4431   8.9479  13.1020   H         1 RES1   0.0000
    87 C23A     4.5743   8.7359  14.9505   C.3       1 RES1   0.0000
    88 H11A     3.7696   8.3004  14.5992   H         1 RES1   0.0000
    89 H12A     4.4033   9.6936  15.0668   H         1 RES1   0.0000
    90 H13A     4.8107   8.3383  15.8139   H         1 RES1   0.0000
    91 C24A     7.0034   9.2393  14.4053   C.3       1 RES1   0.0000
    92 H14A     7.2552   8.9323  15.3016   H         1 RES1   0.0000
    93 H15A     6.8584  10.2084  14.4212   H         1 RES1   0.0000
    94 H16A     7.7212   9.0265  13.7735   H         1 RES1   0.0000
    95 F4A      3.7321   0.1789  10.2487   F         1 RES1   0.0000
    96 F5A      4.8530   0.1683  11.9516   F         1 RES1   0.0000
    97 F6A      5.8227   0.1500  10.0574   F         1 RES1   0.0000
@<TRIPOS>BOND
     1     1     2   un
     2     2     7   un
     3     3    22    1
     4     4    22    1
     5     5    23   un
     6     6     7    1
     7     7     8   un
     8     8     9    1
     9    10     8   un
    10    11    10    1
    11    12     1    1
    12    13     6    1
    13    14    13   un
    14    15    14    1
    15    16    14   un
    16    17    16   un
    17    18    17    1
    18    19    12    1
    19    20    19    1
    20    21    16    1
    21    22     1    1
    22    23     4   un
    23    24     3   un
    24    25    24   un
    25    26    25    1
    26    27    25   un
    27    28    27    1
    28    29     5   un
    29    30    29    1
    30    31     1    1
    31    32     4   un
    32    33    32   un
    33    34    33    1
    34    35    33   un
    35    36    35    1
    36    37     3    1
    37    38    37    1
    38    39    37    1
    39    40    39    1
    40    41    39    1
    41    42    39    1
    42    43    37    1
    43    44    43    1
    44    45    43    1
    45    46    43    1
    46    47    21    1
    47    48    21    1
    48    49    21    1
    49    50    36    1
    50    51    36    1
    51    52    36    1
    52    53    54    1
    53    54     2   un
    54    55    10   un
    55    56    55    1
    56    57     1    1
    57    58    53    1
    58    59    58   un
    59    60    59    1
    60    61    59   un
    61    62    61   un
    62    63    62    1
    63    64    57    1
    64    65    64    1
    65    66    61    1
    66    67    66    1
    67    68    66    1
    68    69    66    1
    69    70    73    1
    70    71    73    1
    71    72    74   un
    72    73     1    1
    73    74    71   un
    74    75    70   un
    75    76    75   un
    76    77    76    1
    77    78    76   un
    78    79    78    1
    79    80    72   un
    80    81    80    1
    81    82    31    1
    82    83    35   un
    83    84    83    1
    84    85    70    1
    85    86    85    1
    86    87    85    1
    87    88    87    1
    88    89    87    1
    89    90    87    1
    90    91    85    1
    91    92    91    1
    92    93    91    1
    93    94    91    1
    94    95    36    1
    95    96    36    1
    96    97    36    1
    97    12    13    1
    98    17    19   un
    99    23    24   un
   100    27    29   un
   101    31    32    1
   102    50    96    1
   103    50    97    1
   104    51    95    1
   105    51    97    1
   106    52    95    1
   107    52    96    1
   108    54    55   un
   109    57    58    1
   110    62    64   un
   111    71    82   un
   112    74    75   un
   113    78    80   un
   114    82    83   un
@<TRIPOS>SUBSTRUCTURE
     1 RES1        1 GROUP             0 ****  ****    0  
