@<TRIPOS>MOLECULE
01
    84    93     1     0     0
SMALL
NO_CHARGES
****
Generated from the CSD

@<TRIPOS>ATOM
     1 Ir1      3.4605   1.5561   3.2395   Ir        1 RES1   0.0000
     2 O1       1.1615   2.4259   5.3385   O.3       1 RES1   0.0000
     3 O2       3.6561   4.5316   1.9831   O.3       1 RES1   0.0000
     4 N1       2.4406   3.4243   3.6497   N.ar      1 RES1   0.0000
     5 N2       4.5988   1.6474   6.2474   N.pl3     1 RES1   0.0000
     6 N3       4.9746  -0.1162   5.0619   N.pl3     1 RES1   0.0000
     7 N4       3.5945   0.1712   0.6885   N.pl3     1 RES1   0.0000
     8 N5       2.1475   1.7133   0.2675   N.pl3     1 RES1   0.0000
     9 C1       1.7276   0.5643   3.8560   C.ar      1 RES1   0.0000
    10 C2       1.3208  -0.7220   3.4512   C.ar      1 RES1   0.0000
    11 H1       1.8729  -1.2025   2.8460   H         1 RES1   0.0000
    12 C3       0.1460  -1.3215   3.8994   C.ar      1 RES1   0.0000
    13 H2      -0.0714  -2.2051   3.6265   H         1 RES1   0.0000
    14 C4      -0.7015  -0.6272   4.7408   C.ar      1 RES1   0.0000
    15 C5      -0.3599   0.6477   5.1659   C.ar      1 RES1   0.0000
    16 H3      -0.9343   1.1406   5.7406   H         1 RES1   0.0000
    17 C6       0.8424   1.1833   4.7322   C.ar      1 RES1   0.0000
    18 C7       1.4487   3.5031   4.5587   C.ar      1 RES1   0.0000
    19 C8       0.7281   4.6547   4.8059   C.ar      1 RES1   0.0000
    20 H4       0.0256   4.6585   5.4452   H         1 RES1   0.0000
    21 C9       1.0459   5.7967   4.1061   C.ar      1 RES1   0.0000
    22 H5       0.5699   6.6046   4.2585   H         1 RES1   0.0000
    23 C10      2.0696   5.7483   3.1822   C.ar      1 RES1   0.0000
    24 H6       2.3129   6.5236   2.6894   H         1 RES1   0.0000
    25 C11      2.7361   4.5518   2.9827   C.ar      1 RES1   0.0000
    26 C12      4.9471   4.0031   2.2179   C.ar      1 RES1   0.0000
    27 C13      5.9817   4.8417   1.8159   C.ar      1 RES1   0.0000
    28 H7       5.7987   5.6938   1.4378   H         1 RES1   0.0000
    29 C14      7.2830   4.4033   1.9822   C.ar      1 RES1   0.0000
    30 C15      7.5301   3.1641   2.5591   C.ar      1 RES1   0.0000
    31 H8       8.4228   2.8720   2.7011   H         1 RES1   0.0000
    32 C16      6.4630   2.3551   2.9292   C.ar      1 RES1   0.0000
    33 H9       6.6507   1.5114   3.3235   H         1 RES1   0.0000
    34 C17      5.1157   2.7276   2.7456   C.ar      1 RES1   0.0000
    35 C18     -1.9695  -1.2432   5.2078   C.3       1 RES1   0.0000
    36 C19      8.4215   5.2267   1.4877   C.3       1 RES1   0.0000
    37 C20      4.3476   1.1180   5.0271   C.3       1 RES1   0.0000
    38 C21      5.3277   0.7553   7.0325   C.2       1 RES1   0.0000
    39 H10      5.6068   0.8988   7.9294   H         1 RES1   0.0000
    40 C22      5.5649  -0.3411   6.2980   C.2       1 RES1   0.0000
    41 H11      6.0419  -1.1166   6.5694   H         1 RES1   0.0000
    42 C23      4.3833  -0.1147   2.8381   C.ar      1 RES1   0.0000
    43 C24      5.0466  -0.8208   3.8343   C.ar      1 RES1   0.0000
    44 C25      5.7331  -1.9973   3.5683   C.ar      1 RES1   0.0000
    45 H12      6.1887  -2.4663   4.2575   H         1 RES1   0.0000
    46 C26      5.7315  -2.4680   2.2555   C.ar      1 RES1   0.0000
    47 C27      5.0555  -1.8006   1.2145   C.ar      1 RES1   0.0000
    48 H13      5.0601  -2.1359   0.3258   H         1 RES1   0.0000
    49 C28      4.3841  -0.6351   1.5441   C.ar      1 RES1   0.0000
    50 C29      3.2053  -0.0169  -0.6260   C.2       1 RES1   0.0000
    51 H14      3.5124  -0.6897  -1.2222   H         1 RES1   0.0000
    52 C30      2.3036   0.9469  -0.8877   C.2       1 RES1   0.0000
    53 H15      1.8525   1.0812  -1.7126   H         1 RES1   0.0000
    54 C31      2.9555   1.2593   1.2593   C.3       1 RES1   0.0000
    55 C32      4.4130   3.0627   6.6016   C.3       1 RES1   0.0000
    56 H16      3.8951   3.4979   5.8646   H         1 RES1   0.0000
    57 C33      3.6149   3.2086   7.8783   C.3       1 RES1   0.0000
    58 H17      2.7193   2.8319   7.7496   H         1 RES1   0.0000
    59 H18      3.5394   4.1579   8.1102   H         1 RES1   0.0000
    60 H19      4.0687   2.7306   8.6039   H         1 RES1   0.0000
    61 C34      5.7808   3.7374   6.6753   C.3       1 RES1   0.0000
    62 H20      6.3235   3.3000   7.3647   H         1 RES1   0.0000
    63 H21      5.6661   4.6839   6.9024   H         1 RES1   0.0000
    64 H22      6.2301   3.6611   5.8085   H         1 RES1   0.0000
    65 C35      6.4525  -3.7267   1.9200   C.3       1 RES1   0.0000
    66 C36      1.1449   2.7738   0.4453   C.3       1 RES1   0.0000
    67 H23      1.5444   3.4714   1.0402   H         1 RES1   0.0000
    68 C37     -0.0644   2.2275   1.1379   C.3       1 RES1   0.0000
    69 H24     -0.4962   1.5606   0.5632   H         1 RES1   0.0000
    70 H25     -0.6933   2.9561   1.3213   H         1 RES1   0.0000
    71 H26      0.2038   1.8068   1.9811   H         1 RES1   0.0000
    72 C38      0.7711   3.4421  -0.8559   C.3       1 RES1   0.0000
    73 H27      1.5853   3.7157  -1.3282   H         1 RES1   0.0000
    74 H28      0.2198   4.2310  -0.6718   H         1 RES1   0.0000
    75 H29      0.2663   2.8134  -1.4129   H         1 RES1   0.0000
    76 F1      -2.9673  -0.3894   5.3466   F         1 RES1   0.0000
    77 F2      -2.3952  -2.2382   4.4329   F         1 RES1   0.0000
    78 F3      -1.8430  -1.7953   6.4339   F         1 RES1   0.0000
    79 F4       8.0765   6.4795   1.1655   F         1 RES1   0.0000
    80 F5       9.4222   5.3159   2.3723   F         1 RES1   0.0000
    81 F6       8.9775   4.7022   0.3733   F         1 RES1   0.0000
    82 F7       5.6313  -4.7784   1.7885   F         1 RES1   0.0000
    83 F8       7.3571  -4.0750   2.8439   F         1 RES1   0.0000
    84 F9       7.1220  -3.6492   0.7608   F         1 RES1   0.0000
@<TRIPOS>BOND
     1     1     4    1
     2     2    17    1
     3     3    25    1
     4     4    18   ar
     5     5    37    1
     6     6    37    1
     7     7    49    1
     8     8    52    1
     9     9     1    1
    10    10     9   ar
    11    11    10    1
    12    12    10   ar
    13    13    12    1
    14    14    12   ar
    15    15    14   ar
    16    16    15    1
    17    17     9   ar
    18    18     2    1
    19    19    18   ar
    20    20    19    1
    21    21    19   ar
    22    22    21    1
    23    23    21   ar
    24    24    23    1
    25    25     4   ar
    26    26     3    1
    27    27    26   ar
    28    28    27    1
    29    29    27   ar
    30    30    29   ar
    31    31    30    1
    32    32    30   ar
    33    33    32    1
    34    34     1    1
    35    35    14    1
    36    36    29    1
    37    37     1    1
    38    38     5    1
    39    39    38    1
    40    40     6    1
    41    41    40    1
    42    42     1    1
    43    43     6    1
    44    44    43   ar
    45    45    44    1
    46    46    44   ar
    47    47    46   ar
    48    48    47    1
    49    49    42   ar
    50    50     7    1
    51    51    50    1
    52    52    50    2
    53    53    52    1
    54    54     1    1
    55    55     5    1
    56    56    55    1
    57    57    55    1
    58    58    57    1
    59    59    57    1
    60    60    57    1
    61    61    55    1
    62    62    61    1
    63    63    61    1
    64    64    61    1
    65    65    46    1
    66    66     8    1
    67    67    66    1
    68    68    66    1
    69    69    68    1
    70    70    68    1
    71    71    68    1
    72    72    66    1
    73    73    72    1
    74    74    72    1
    75    75    72    1
    76    76    35    1
    77    77    35    1
    78    78    35    1
    79    79    36    1
    80    80    36    1
    81    81    36    1
    82    82    65    1
    83    83    65    1
    84    84    65    1
    85     7    54    1
    86     8    54    1
    87    15    17   ar
    88    23    25   ar
    89    26    34   ar
    90    32    34   ar
    91    38    40    2
    92    42    43   ar
    93    47    49   ar
@<TRIPOS>SUBSTRUCTURE
     1 RES1        1 GROUP             0 ****  ****    0  
