@<TRIPOS>MOLECULE
01
   111   120     1     0     0
SMALL
USER_CHARGES
****
Generated from the CSD

@<TRIPOS>ATOM
     1 C1      -4.7958  13.6996  19.1037   C.ar      1 RES1   0.0000
     2 C2      -6.1226  13.9321  18.7618   C.ar      1 RES1   0.0000
     3 C3      -6.5256  15.1353  18.1796   C.ar      1 RES1   0.0000
     4 C4      -5.5363  16.0977  18.0134   C.ar      1 RES1   0.0000
     5 H1      -5.7949  16.9296  17.6331   H         1 RES1   0.0000
     6 C5      -4.1916  15.9432  18.3583   C.ar      1 RES1   0.0000
     7 C6      -3.8584  14.6974  18.9083   C.ar      1 RES1   0.0000
     8 C7      -7.9560  15.4358  17.7353   C.3       1 RES1   0.0000
     9 H2      -7.9844  16.3131  17.2989   H         1 RES1   0.0000
    10 H3      -8.5465  15.4429  18.5176   H         1 RES1   0.0000
    11 H4      -8.2554  14.7470  17.1062   H         1 RES1   0.0000
    12 C8      -3.2322  17.0813  18.1206   C.3       1 RES1   0.0000
    13 H5      -2.8382  17.3619  18.9726   H         1 RES1   0.0000
    14 H6      -3.7118  17.8353  17.7190   H         1 RES1   0.0000
    15 H7      -2.5194  16.7879  17.5124   H         1 RES1   0.0000
    16 C9      -6.2673  11.7126  19.6086   C.3       1 RES1   0.0000
    17 C10     -8.4905  11.3667  19.5576   C.2       1 RES1   0.0000
    18 H8      -9.3316  10.9387  19.6690   H         1 RES1   0.0000
    19 C11     -8.2892  12.5870  19.0619   C.2       1 RES1   0.0000
    20 H9      -8.9524  13.1965  18.7590   H         1 RES1   0.0000
    21 C12     -7.0673   9.5668  20.5611   C.3       1 RES1   0.0000
    22 H10     -6.1213   9.2847  20.4861   H         1 RES1   0.0000
    23 H11     -7.6294   8.8737  20.1309   H         1 RES1   0.0000
    24 C13     -7.4527   9.6957  22.0437   C.3       1 RES1   0.0000
    25 H12     -6.8703  10.3789  22.4593   H         1 RES1   0.0000
    26 H13     -8.3835  10.0288  22.0971   H         1 RES1   0.0000
    27 C14     -7.3649   8.5406  22.7935   C.3       1 RES1   0.0000
    28 H14     -6.4343   8.2062  22.7680   H         1 RES1   0.0000
    29 H15     -7.9491   7.8476  22.3943   H         1 RES1   0.0000
    30 C15     -7.7841   8.7688  24.2769   C.3       1 RES1   0.0000
    31 H16     -7.1669   9.4038  24.6971   H         1 RES1   0.0000
    32 H17     -7.7554   7.9156  24.7597   H         1 RES1   0.0000
    33 H18     -8.6959   9.1288  24.3071   H         1 RES1   0.0000
    34 C16     -2.4936  12.9740  19.8517   C.3       1 RES1   0.0000
    35 C17     -0.4789  13.9817  19.9058   C.2       1 RES1   0.0000
    36 H19      0.4480  14.1206  20.0659   H         1 RES1   0.0000
    37 C18     -1.3300  14.8689  19.3821   C.2       1 RES1   0.0000
    38 H20     -1.1272  15.7490  19.0910   H         1 RES1   0.0000
    39 C19     -0.6269  11.6431  20.8276   C.3       1 RES1   0.0000
    40 H21      0.2872  11.4872  20.4815   H         1 RES1   0.0000
    41 H22     -1.1745  10.8480  20.6091   H         1 RES1   0.0000
    42 C20     -0.5705  11.8146  22.3337   C.3       1 RES1   0.0000
    43 H23     -1.4897  11.9195  22.6844   H         1 RES1   0.0000
    44 H24     -0.0650  12.6366  22.5498   H         1 RES1   0.0000
    45 C21      0.0941  10.6255  23.0141   C.3       1 RES1   0.0000
    46 H25     -0.3891   9.7992  22.7587   H         1 RES1   0.0000
    47 H26      1.0238  10.5447  22.6844   H         1 RES1   0.0000
    48 C22      0.1158  10.7318  24.5114   C.3       1 RES1   0.0000
    49 H27      0.5206  11.5864  24.7714   H         1 RES1   0.0000
    50 H28      0.6428   9.9934  24.8828   H         1 RES1   0.0000
    51 H29     -0.8005  10.6864  24.8549   H         1 RES1   0.0000
    52 C23     -3.6450  10.1053  20.6365   C.ar      1 RES1   0.0000
    53 C24     -3.6967   9.8517  22.0122   C.ar      1 RES1   0.0000
    54 C25     -3.3178   8.6384  22.5598   C.ar      1 RES1   0.0000
    55 C26     -2.8809   7.6747  21.6570   C.ar      1 RES1   0.0000
    56 H30     -2.6299   6.8286  22.0089   H         1 RES1   0.0000
    57 C27     -2.7799   7.8533  20.2658   C.ar      1 RES1   0.0000
    58 C28     -3.1700   9.1005  19.7932   C.ar      1 RES1   0.0000
    59 C29     -3.3855   8.3025  24.0376   C.3       1 RES1   0.0000
    60 H31     -3.0271   7.4026  24.1840   H         1 RES1   0.0000
    61 H32     -4.3168   8.3380  24.3396   H         1 RES1   0.0000
    62 H33     -2.8543   8.9517  24.5439   H         1 RES1   0.0000
    63 C30     -2.2698   6.7194  19.4067   C.3       1 RES1   0.0000
    64 H34     -2.9367   6.4997  18.7242   H         1 RES1   0.0000
    65 H35     -2.1056   5.9328  19.9684   H         1 RES1   0.0000
    66 H36     -1.4347   6.9901  18.9726   H         1 RES1   0.0000
    67 C31     -4.5102  12.1122  21.8987   C.3       1 RES1   0.0000
    68 C32     -4.9742  12.5389  24.0733   C.2       1 RES1   0.0000
    69 H37     -5.2652  12.9981  24.8526   H         1 RES1   0.0000
    70 C33     -4.4894  11.2789  24.0185   C.2       1 RES1   0.0000
    71 H38     -4.3714  10.6864  24.7528   H         1 RES1   0.0000
    72 C34     -5.4697  14.3615  22.3996   C.3       1 RES1   0.0000
    73 H39     -5.1229  14.5996  21.5029   H         1 RES1   0.0000
    74 H40     -5.1271  15.0319  23.0443   H         1 RES1   0.0000
    75 C35     -6.9778  14.4210  22.3785   C.3       1 RES1   0.0000
    76 H41     -7.3269  14.2070  23.2810   H         1 RES1   0.0000
    77 H42     -7.3233  13.7407  21.7489   H         1 RES1   0.0000
    78 C36     -7.4761  15.7887  21.9602   C.3       1 RES1   0.0000
    79 H43     -7.0907  16.4704  22.5661   H         1 RES1   0.0000
    80 H44     -7.1563  15.9829  21.0432   H         1 RES1   0.0000
    81 C37     -8.9828  15.8993  21.9904   C.3       1 RES1   0.0000
    82 H45     -9.3735  15.2076  21.4170   H         1 RES1   0.0000
    83 H46     -9.2527  16.7837  21.6654   H         1 RES1   0.0000
    84 H47     -9.3004  15.7774  22.9096   H         1 RES1   0.0000
    85 C38     -3.6909  10.8381  18.2174   C.3       1 RES1   0.0000
    86 C39     -3.0713   9.8715  16.2721   C.2       1 RES1   0.0000
    87 H48     -2.9136   9.7553  15.3419   H         1 RES1   0.0000
    88 C40     -2.7994   8.9885  17.2359   C.2       1 RES1   0.0000
    89 H49     -2.4129   8.1268  17.1248   H         1 RES1   0.0000
    90 C41     -4.2341  12.1023  16.1468   C.3       1 RES1   0.0000
    91 H50     -3.7252  12.2681  15.3141   H         1 RES1   0.0000
    92 H51     -4.1877  12.9215  16.6999   H         1 RES1   0.0000
    93 C42     -5.6820  11.8104  15.8006   C.3       1 RES1   0.0000
    94 H52     -5.7193  10.9997  15.2328   H         1 RES1   0.0000
    95 H53     -6.1789  11.6162  16.6349   H         1 RES1   0.0000
    96 C43     -6.3643  12.9428  15.0773   C.3       1 RES1   0.0000
    97 H54     -5.9037  13.1072  14.2184   H         1 RES1   0.0000
    98 H55     -6.2956  13.7662  15.6228   H         1 RES1   0.0000
    99 C44     -7.8466  12.6381  14.8080   C.3       1 RES1   0.0000
   100 H56     -7.9151  11.8529  14.2230   H         1 RES1   0.0000
   101 H57     -8.2632  13.4091  14.3693   H         1 RES1   0.0000
   102 H58     -8.3024  12.4566  15.6553   H         1 RES1   0.0000
   103 N1      -6.9132  12.7940  19.0763   N.pl3     1 RES1   0.0000
   104 N2      -7.2535  10.8324  19.8809   N.pl3     1 RES1   0.0000
   105 N3      -2.5713  14.2510  19.3479   N.pl3     1 RES1   0.0000
   106 N4      -1.1960  12.8181  20.1753   N.pl3     1 RES1   0.0000
   107 N5      -4.1984  11.0138  22.6819   N.pl3     1 RES1   0.0000
   108 N6      -4.9676  13.0335  22.7733   N.pl3     1 RES1   0.0000
   109 N7      -3.1912   9.5739  18.4319   N.pl3     1 RES1   0.0000
   110 N8      -3.6232  10.9883  16.8768   N.pl3     1 RES1   0.0000
   111 Ir1     -4.2365  11.8980  19.8829   Ir        1 RES1   1.0000
@<TRIPOS>BOND
     1     1     2   ar
     2     2     3   ar
     3     3     4   ar
     4     4     5    1
     5     6     4   ar
     6     7     1   ar
     7     8     3    1
     8     9     8    1
     9    10     8    1
    10    11     8    1
    11    12     6    1
    12    13    12    1
    13    14    12    1
    14    15    12    1
    15    16   103    1
    16    17    18    1
    17    19    17    2
    18    20    19    1
    19    21    22    1
    20    23    21    1
    21    24    21    1
    22    25    24    1
    23    26    24    1
    24    27    24    1
    25    28    27    1
    26    29    27    1
    27    30    27    1
    28    31    30    1
    29    32    30    1
    30    33    30    1
    31    34   105    1
    32    35    36    1
    33    37    35    2
    34    38    37    1
    35    39    40    1
    36    41    39    1
    37    42    39    1
    38    43    42    1
    39    44    42    1
    40    45    42    1
    41    46    45    1
    42    47    45    1
    43    48    45    1
    44    49    48    1
    45    50    48    1
    46    51    48    1
    47    52    53   ar
    48    53    54   ar
    49    54    55   ar
    50    55    56    1
    51    57    55   ar
    52    58    52   ar
    53    59    54    1
    54    60    59    1
    55    61    59    1
    56    62    59    1
    57    63    57    1
    58    64    63    1
    59    65    63    1
    60    66    63    1
    61    67   107    1
    62    68    69    1
    63    70    68    2
    64    71    70    1
    65    72    73    1
    66    74    72    1
    67    75    72    1
    68    76    75    1
    69    77    75    1
    70    78    75    1
    71    79    78    1
    72    80    78    1
    73    81    78    1
    74    82    81    1
    75    83    81    1
    76    84    81    1
    77    85   109    1
    78    86    87    1
    79    88    86    2
    80    89    88    1
    81    90    91    1
    82    92    90    1
    83    93    90    1
    84    94    93    1
    85    95    93    1
    86    96    93    1
    87    97    96    1
    88    98    96    1
    89    99    96    1
    90   100    99    1
    91   101    99    1
    92   102    99    1
    93   103     2    1
    94   104    16    1
    95   105     7    1
    96   106    34    1
    97   107    53    1
    98   108    67    1
    99   109    58    1
   100   110    85    1
   101   111     1    1
   102     6     7   ar
   103    16   111    1
   104    17   104    1
   105    19   103    1
   106    21   104    1
   107    34   111    1
   108    35   106    1
   109    37   105    1
   110    39   106    1
   111    52   111    1
   112    57    58   ar
   113    67   111    1
   114    68   108    1
   115    70   107    1
   116    72   108    1
   117    85   111    1
   118    86   110    1
   119    88   109    1
   120    90   110    1
@<TRIPOS>SUBSTRUCTURE
     1 RES1        1 GROUP             0 ****  ****    0  
