@<TRIPOS>MOLECULE
02
   142   156     1     0     0
SMALL
NO_CHARGES
****
Generated from the CSD

@<TRIPOS>ATOM
     1 Ir2     16.6414  14.6828   6.1234   Ir        1 RES1   0.0000
     2 F10     21.5287   9.8919   2.0274   F         1 RES1   0.0000
     3 F11     20.8888  10.1693   0.0042   F         1 RES1   0.0000
     4 F12     22.2937  21.1342   7.2633   F         1 RES1   0.0000
     5 F13     16.8665  10.7738  13.4318   F         1 RES1   0.0000
     6 F14     21.5723  20.4952   9.1307   F         1 RES1   0.0000
     7 F15     16.6006  12.7535  14.0150   F         1 RES1   0.0000
     8 F16     19.9667   8.7353   1.2527   F         1 RES1   0.0000
     9 F17     20.3141  21.4533   7.8149   F         1 RES1   0.0000
    10 F18     14.9275  11.3872  14.0466   F         1 RES1   0.0000
    11 N13     17.2954  13.8237   3.4169   N.pl3     1 RES1   0.0000
    12 N14     18.2068  16.9743   7.0149   N.pl3     1 RES1   0.0000
    13 N15     16.6684  12.7283  11.2802   N.ar      1 RES1   0.0000
    14 N16     19.1146  11.9159   0.8211   N.ar      1 RES1   0.0000
    15 N17     21.8667  18.6094   6.6149   N.ar      1 RES1   0.0000
    16 N18     19.1576  10.9024   3.0127   N.ar      1 RES1   0.0000
    17 N19     14.4669  11.8132  11.4991   N.ar      1 RES1   0.0000
    18 N20     17.9625  12.1654   4.6864   N.pl3     1 RES1   0.0000
    19 N21     15.2333  13.0881   8.1054   N.pl3     1 RES1   0.0000
    20 N22     19.6457  15.7223   5.9327   N.pl3     1 RES1   0.0000
    21 N23     17.1639  13.5501   9.0444   N.pl3     1 RES1   0.0000
    22 N24     19.6585  18.8608   7.5349   N.ar      1 RES1   0.0000
    23 C67     16.4721  13.6539   7.8549   C.3       1 RES1   0.0000
    24 C68     14.7081  13.8939   5.9369   C.ar      1 RES1   0.0000
    25 C69     17.3503  13.3701   4.7138   C.3       1 RES1   0.0000
    26 C70     15.9666  16.2805   7.2970   C.ar      1 RES1   0.0000
    27 C71     14.4155  17.6197   8.6465   C.ar      1 RES1   0.0000
    28 C72     20.8387  13.8147   9.4549   C.ar      1 RES1   0.0000
    29 C73     16.7240  15.1200   3.1895   C.ar      1 RES1   0.0000
    30 C74     18.3157  12.8943   1.2527   C.ar      1 RES1   0.0000
    31 C75     14.7220  16.4850   7.8549   C.ar      1 RES1   0.0000
    32 C76     20.3041  16.8865   6.3096   C.ar      1 RES1   0.0000
    33 C77     20.3146  14.7588   5.1032   C.ar      1 RES1   0.0000
    34 C78     19.2343  10.6589   6.1643   C.ar      1 RES1   0.0000
    35 C79     17.9689  12.9485   2.5916   C.ar      1 RES1   0.0000
    36 C80     20.3238  14.9283   3.7369   C.ar      1 RES1   0.0000
    37 C81     19.3835  17.6737   7.0212   C.ar      1 RES1   0.0000
    38 C82     18.0337  11.2379   5.7896   C.ar      1 RES1   0.0000
    39 C83     20.9999  15.1225   9.8886   C.ar      1 RES1   0.0000
    40 C84     19.5041  11.0097   1.7095   C.ar      1 RES1   0.0000
    41 C85     16.5236  15.6293   1.9158   C.ar      1 RES1   0.0000
    42 C86     19.2737   9.7446   7.2064   C.ar      1 RES1   0.0000
    43 C87     13.7975  14.0085   4.9075   C.ar      1 RES1   0.0000
    44 C88     16.9258  17.2830   7.5559   C.ar      1 RES1   0.0000
    45 C89     20.4654   9.9714   1.2337   C.3       1 RES1   0.0000
    46 C90     12.5358  13.4272   4.9580   C.ar      1 RES1   0.0000
    47 C91     12.1489  12.7143   6.0822   C.ar      1 RES1   0.0000
    48 C92     18.4695  14.0825   9.3181   C.ar      1 RES1   0.0000
    49 C93     16.6620  18.4174   8.2486   C.ar      1 RES1   0.0000
    50 C94     15.7830  17.0314   4.2001   C.ar      1 RES1   0.0000
    51 C95     19.5669  13.2945   9.1602   C.ar      1 RES1   0.0000
    52 C96     18.3900  11.8767   3.4085   C.ar      1 RES1   0.0000
    53 C97     15.5860  17.5866   2.9601   C.ar      1 RES1   0.0000
    54 C98     13.0148  12.5655   7.1328   C.ar      1 RES1   0.0000
    55 C99     19.8430  15.8846  10.0444   C.ar      1 RES1   0.0000
    56 C100    18.6053  15.3797   9.7707   C.ar      1 RES1   0.0000
    57 C101    14.1736  12.0794  10.2107   C.ar      1 RES1   0.0000
    58 C102    18.1427   8.4476   9.1096   C.3       1 RES1   0.0000
    59 C103    15.9611  16.8929   1.8021   C.ar      1 RES1   0.0000
    60 C104    12.6868  19.1289   9.7223   C.3       1 RES1   0.0000
    61 C105    22.3960  15.6788  10.1960   C.3       1 RES1   0.0000
    62 C106    17.8408   9.2722  10.3728   C.3       1 RES1   0.0000
    63 C107    21.8490  13.1084   3.5116   C.ar      1 RES1   0.0000
    64 C108    17.0560   7.3606   8.9602   C.3       1 RES1   0.0000
    65 C109    21.8180  12.9226   4.8948   C.ar      1 RES1   0.0000
    66 C110    22.7570  15.3486  11.6444   C.3       1 RES1   0.0000
    67 C111    15.9782  11.8339  13.3939   C.3       1 RES1   0.0000
    68 C112    22.4531  17.1964  10.0318   C.3       1 RES1   0.0000
    69 C113    13.0462  17.6965   9.3349   C.3       1 RES1   0.0000
    70 C114    23.4394  15.0906   9.2570   C.3       1 RES1   0.0000
    71 C115    11.9264  17.1937   8.4233   C.3       1 RES1   0.0000
    72 C116    13.1925  16.9000  10.6233   C.3       1 RES1   0.0000
    73 C117    16.3672  12.9556  10.0044   C.ar      1 RES1   0.0000
    74 C118    14.2631  13.1677   7.0570   C.ar      1 RES1   0.0000
    75 C119    15.3526  18.6231   8.7686   C.ar      1 RES1   0.0000
    76 C120    16.3527  15.7736   4.3643   C.ar      1 RES1   0.0000
    77 C121    15.1343  12.6656   9.4023   C.ar      1 RES1   0.0000
    78 C122    18.3478  15.7479   6.3812   C.3       1 RES1   0.0000
    79 C123    16.9156   9.9826   7.4970   C.ar      1 RES1   0.0000
    80 C124    18.1112   9.4042   7.9096   C.ar      1 RES1   0.0000
    81 C125    16.8606  10.8734   6.4254   C.ar      1 RES1   0.0000
    82 C126    21.5668  17.3819   6.1159   C.ar      1 RES1   0.0000
    83 C127    20.9116  19.2382   7.2843   C.ar      1 RES1   0.0000
    84 C128    21.0344  13.7461   5.6843   C.ar      1 RES1   0.0000
    85 C129    21.3019  20.5764   7.8717   C.3       1 RES1   0.0000
    86 C130    15.6663  12.1527  11.9413   C.ar      1 RES1   0.0000
    87 C131    21.0986  14.0950   2.9579   C.ar      1 RES1   0.0000
    88 C132    19.4888   7.7773   9.2781   C.3       1 RES1   0.0000
    89 H55     12.7661  12.0584   7.8970   H         1 RES1   0.0000
    90 H56     11.2809  12.3278   6.1243   H         1 RES1   0.0000
    91 H57     11.9393  13.5173   4.2253   H         1 RES1   0.0000
    92 H58     14.0414  14.5037   4.1348   H         1 RES1   0.0000
    93 H59     17.3404  19.0659   8.3854   H         1 RES1   0.0000
    94 H60     15.1281  19.4435   9.1938   H         1 RES1   0.0000
    95 H61     14.0422  15.8402   7.7012   H         1 RES1   0.0000
    96 H62     15.5219  17.5236   4.9706   H         1 RES1   0.0000
    97 H63     15.1920  18.4469   2.8864   H         1 RES1   0.0000
    98 H64     15.8297  17.2833   0.9453   H         1 RES1   0.0000
    99 H65     16.7659  15.1298   1.1453   H         1 RES1   0.0000
   100 H66     17.8354  15.9206   9.8949   H         1 RES1   0.0000
   101 H67     19.9172  16.7807  10.3475   H         1 RES1   0.0000
   102 H68     21.6033  13.2599   9.3538   H         1 RES1   0.0000
   103 H69     19.4747  12.4000   8.8549   H         1 RES1   0.0000
   104 H70     16.0282  11.2261   6.1348   H         1 RES1   0.0000
   105 H71     16.1144   9.7666   7.9601   H         1 RES1   0.0000
   106 H72     20.1012   9.3442   7.4485   H         1 RES1   0.0000
   107 H73     20.0332  10.8879   5.7033   H         1 RES1   0.0000
   108 H74     20.9984  13.6122   6.6254   H         1 RES1   0.0000
   109 H75     22.3341  12.2309   5.2927   H         1 RES1   0.0000
   110 H76     22.3894  12.5521   2.9643   H         1 RES1   0.0000
   111 H77     21.1065  14.2122   2.0148   H         1 RES1   0.0000
   112 H78     19.7997  15.6121   3.3348   H         1 RES1   0.0000
   113 H79     17.9887  13.5475   0.6463   H         1 RES1   0.0000
   114 H80     13.3183  11.8655   9.8591   H         1 RES1   0.0000
   115 H81     13.3605  19.4722  10.3581   H         1 RES1   0.0000
   116 H82     12.6804  19.6903   8.9202   H         1 RES1   0.0000
   117 H83     11.8044  19.1409  10.1475   H         1 RES1   0.0000
   118 H84     16.9535   9.6798  10.2907   H         1 RES1   0.0000
   119 H85     17.8498   8.6870  11.1581   H         1 RES1   0.0000
   120 H86     18.5153   9.9751  10.4739   H         1 RES1   0.0000
   121 H87     17.0057   6.8422   9.7854   H         1 RES1   0.0000
   122 H88     16.1917   7.7862   8.7791   H         1 RES1   0.0000
   123 H89     17.2879   6.7720   8.2107   H         1 RES1   0.0000
   124 H90     22.0780  15.7187  12.2423   H         1 RES1   0.0000
   125 H91     22.7897  14.3761  11.7602   H         1 RES1   0.0000
   126 H92     23.6360  15.7296  11.8570   H         1 RES1   0.0000
   127 H93     22.0861  17.4446   9.1623   H         1 RES1   0.0000
   128 H94     21.9346  17.6208  10.7370   H         1 RES1   0.0000
   129 H95     23.3842  17.4950  10.0844   H         1 RES1   0.0000
   130 H96     23.5217  14.1302   9.4317   H         1 RES1   0.0000
   131 H97     23.1610  15.2351   8.3286   H         1 RES1   0.0000
   132 H98     24.2993  15.5233   9.4107   H         1 RES1   0.0000
   133 H99     11.8944  17.7507   7.6149   H         1 RES1   0.0000
   134 H100    12.0964  16.2611   8.1686   H         1 RES1   0.0000
   135 H101    11.0699  17.2567   8.8949   H         1 RES1   0.0000
   136 H102    13.2686  15.9464  10.4086   H         1 RES1   0.0000
   137 H103    13.9932  17.1971  11.0949   H         1 RES1   0.0000
   138 H104    12.4032  17.0431  11.1876   H         1 RES1   0.0000
   139 H105    22.2177  16.8779   5.6422   H         1 RES1   0.0000
   140 H106    20.1771   8.4600   9.4107   H         1 RES1   0.0000
   141 H107    19.4650   7.1848  10.0633   H         1 RES1   0.0000
   142 H108    19.6941   7.2593   8.4738   H         1 RES1   0.0000
@<TRIPOS>BOND
     1     1    23    1
     2     2    45    1
     3     3    45    1
     4     4    85    1
     5     5    67    1
     6     6    85    1
     7     7    67    1
     8     8    45    1
     9     9    85    1
    10    10    67    1
    11    11    25    1
    12    12    37    1
    13    13    73   ar
    14    14    30   ar
    15    15    82   ar
    16    16    40   ar
    17    17    57   ar
    18    18    25    1
    19    19    23    1
    20    20    32    1
    21    21    23    1
    22    22    37   ar
    23    24     1    1
    24    25     1    1
    25    26     1    1
    26    27    31   ar
    27    28    39   ar
    28    29    11    1
    29    30    35   ar
    30    31    26   ar
    31    32    37   ar
    32    33    20    1
    33    34    38   ar
    34    35    11    1
    35    36    33   ar
    36    38    18    1
    37    39    55   ar
    38    40    14   ar
    39    41    29   ar
    40    42    34   ar
    41    43    24   ar
    42    44    12    1
    43    45    40    1
    44    46    43   ar
    45    47    46   ar
    46    48    21    1
    47    49    44   ar
    48    50    53   ar
    49    51    28   ar
    50    52    16   ar
    51    53    59   ar
    52    54    47   ar
    53    55    56   ar
    54    56    48   ar
    55    57    77   ar
    56    58    62    1
    57    59    41   ar
    58    60    69    1
    59    61    39    1
    60    62   118    1
    61    63    65   ar
    62    64    58    1
    63    65    84   ar
    64    66    61    1
    65    67    86    1
    66    68    61    1
    67    69    27    1
    68    70    61    1
    69    71    69    1
    70    72    69    1
    71    73    21    1
    72    74    19    1
    73    75    27   ar
    74    76     1    1
    75    77    19    1
    76    78     1    1
    77    79    80   ar
    78    80    42   ar
    79    81    38   ar
    80    82    32   ar
    81    83    15   ar
    82    84    33   ar
    83    85    83    1
    84    86    13   ar
    85    87    36   ar
    86    88    58    1
    87    89    54    1
    88    90    47    1
    89    91    46    1
    90    92    43    1
    91    93    49    1
    92    94    75    1
    93    95    31    1
    94    96    50    1
    95    97    53    1
    96    98    59    1
    97    99    41    1
    98   100    56    1
    99   101    55    1
   100   102    28    1
   101   103    51    1
   102   104    81    1
   103   105    79    1
   104   106    42    1
   105   107    34    1
   106   108    84    1
   107   109    65    1
   108   110    63    1
   109   111    87    1
   110   112    36    1
   111   113    30    1
   112   114    57    1
   113   115    60    1
   114   116    60    1
   115   117    60    1
   116   119    62    1
   117   120    62    1
   118   121    64    1
   119   122    64    1
   120   123    64    1
   121   124    66    1
   122   125    66    1
   123   126    66    1
   124   127    68    1
   125   128    68    1
   126   129    68    1
   127   130    70    1
   128   131    70    1
   129   132    70    1
   130   133    71    1
   131   134    71    1
   132   135    71    1
   133   136    72    1
   134   137    72    1
   135   138    72    1
   136   139    82    1
   137   140    88    1
   138   141    88    1
   139   142    88    1
   140    12    78    1
   141    17    86   ar
   142    18    52    1
   143    20    78    1
   144    22    83   ar
   145    24    74   ar
   146    26    44   ar
   147    29    76   ar
   148    35    52   ar
   149    48    51   ar
   150    49    75   ar
   151    50    76   ar
   152    54    74   ar
   153    58    80    1
   154    63    87   ar
   155    73    77   ar
   156    79    81   ar
@<TRIPOS>SUBSTRUCTURE
     1 RES1        1 GROUP             0 ****  ****    0  
