@<TRIPOS>MOLECULE
01
   107   118     1     0     0
SMALL
NO_CHARGES
****
Generated from the CSD

@<TRIPOS>ATOM
     1 Ir1      7.4389   7.2739   4.0591   Ir        1 RES1   0.0000
     2 N1       6.7328  10.1056   5.6752   N.3       1 RES1   0.0000
     3 N2       8.5803   8.9521   4.7845   N.ar      1 RES1   0.0000
     4 N3       9.4360   6.6009   3.9356   N.2       1 RES1   0.0000
     5 N4      10.0356   5.4537   3.5591   N.2       1 RES1   0.0000
     6 N5       7.0345   6.3384   7.1265   N.pl3     1 RES1   0.0000
     7 N6       6.3508   5.0268   5.5500   N.pl3     1 RES1   0.0000
     8 N7       6.9350   6.6034   1.2777   N.pl3     1 RES1   0.0000
     9 N8       7.6909   8.6209   1.1677   N.pl3     1 RES1   0.0000
    10 O1       2.3538   8.8191   2.5467   O.3       1 RES1   0.0000
    11 O2       7.8263  11.4082   8.0183   O.3       1 RES1   0.0000
    12 O3      10.8942  12.3456   5.1406   O.3       1 RES1   0.0000
    13 C1       5.7391   8.3934   4.0844   C.ar      1 RES1   0.0000
    14 C2       4.5769   8.1573   3.3206   C.ar      1 RES1   0.0000
    15 H1       4.5295   7.3666   2.7963   H         1 RES1   0.0000
    16 C3       3.4909   9.0373   3.3023   C.ar      1 RES1   0.0000
    17 C4       3.4703  10.1751   4.1021   C.ar      1 RES1   0.0000
    18 H2       2.7112  10.7457   4.1225   H         1 RES1   0.0000
    19 C5       4.5929  10.4466   4.8669   C.ar      1 RES1   0.0000
    20 C6       5.7096   9.5879   4.8085   C.ar      1 RES1   0.0000
    21 C7       4.8802  11.4599   5.8678   C.ar      1 RES1   0.0000
    22 C8       4.0952  12.4684   6.4399   C.ar      1 RES1   0.0000
    23 H3       3.2350  12.6722   6.0915   H         1 RES1   0.0000
    24 C9       4.5979  13.1584   7.5197   C.ar      1 RES1   0.0000
    25 H4       4.0880  13.8639   7.9006   H         1 RES1   0.0000
    26 C10      5.8441  12.8410   8.0688   C.ar      1 RES1   0.0000
    27 H5       6.1540  13.3158   8.8315   H         1 RES1   0.0000
    28 C11      6.6388  11.8425   7.5166   C.ar      1 RES1   0.0000
    29 C12      6.1600  11.2010   6.3615   C.ar      1 RES1   0.0000
    30 C13      8.0849  10.1095   5.2801   C.ar      1 RES1   0.0000
    31 C14      8.8556  11.2521   5.3740   C.ar      1 RES1   0.0000
    32 H6       8.4687  12.0733   5.6563   H         1 RES1   0.0000
    33 C15     10.2139  11.1844   5.0495   C.ar      1 RES1   0.0000
    34 C16     10.7589   9.9678   4.6496   C.ar      1 RES1   0.0000
    35 H7      11.6878   9.8834   4.4706   H         1 RES1   0.0000
    36 C17      9.9090   8.8884   4.5219   C.ar      1 RES1   0.0000
    37 C18     10.3655   7.5768   4.0785   C.2       1 RES1   0.0000
    38 C19     11.6303   7.0650   3.7867   C.2       1 RES1   0.0000
    39 H8      12.4695   7.5084   3.7987   H         1 RES1   0.0000
    40 C20     11.3489   5.7416   3.4747   C.2       1 RES1   0.0000
    41 C21     12.3213   4.6794   3.0992   C.3       1 RES1   0.0000
    42 C22      2.4772   7.9299   1.4458   C.3       1 RES1   0.0000
    43 H9       3.2257   8.2113   0.8800   H         1 RES1   0.0000
    44 H10      1.6485   7.9429   0.9207   H         1 RES1   0.0000
    45 H11      2.6394   7.0212   1.7750   H         1 RES1   0.0000
    46 C23      8.2466  11.9540   9.2685   C.3       1 RES1   0.0000
    47 H12      8.3865  12.9198   9.1723   H         1 RES1   0.0000
    48 H13      9.0854  11.5291   9.5447   H         1 RES1   0.0000
    49 H14      7.5580  11.7896   9.9453   H         1 RES1   0.0000
    50 C24     12.2897  12.3081   4.8080   C.3       1 RES1   0.0000
    51 H15     12.7471  11.6661   5.3911   H         1 RES1   0.0000
    52 H16     12.6797  13.1982   4.9336   H         1 RES1   0.0000
    53 H17     12.3957  12.0334   3.8736   H         1 RES1   0.0000
    54 C25      6.9695   6.2460   5.7756   C.3       1 RES1   0.0000
    55 C26      6.4953   5.2043   7.7258   C.2       1 RES1   0.0000
    56 H18      6.4389   5.0357   8.6594   H         1 RES1   0.0000
    57 C27      6.0657   4.3846   6.7414   C.2       1 RES1   0.0000
    58 H19      5.6512   3.5370   6.8464   H         1 RES1   0.0000
    59 C28      6.5686   5.6679   3.3518   C.ar      1 RES1   0.0000
    60 C29      6.1084   4.6731   4.1959   C.ar      1 RES1   0.0000
    61 C30      5.5002   3.5186   3.7221   C.ar      1 RES1   0.0000
    62 H20      5.1988   2.8496   4.3254   H         1 RES1   0.0000
    63 C31      5.3360   3.3558   2.3271   C.ar      1 RES1   0.0000
    64 C32      5.7957   4.3501   1.4612   C.ar      1 RES1   0.0000
    65 H21      5.6830   4.2561   0.5219   H         1 RES1   0.0000
    66 C33      6.4188   5.4785   1.9812   C.ar      1 RES1   0.0000
    67 C34      7.4412   7.6315   2.0496   C.3       1 RES1   0.0000
    68 C35      6.9114   6.9615  -0.0631   C.2       1 RES1   0.0000
    69 H22      6.6199   6.4242  -0.7903   H         1 RES1   0.0000
    70 C36      7.3826   8.2227  -0.1292   C.2       1 RES1   0.0000
    71 H23      7.4865   8.7445  -0.9172   H         1 RES1   0.0000
    72 C37      7.6769   7.4589   7.8327   C.3       1 RES1   0.0000
    73 H24      7.5582   8.2787   7.2734   H         1 RES1   0.0000
    74 C38      9.1597   7.2064   7.9703   C.3       1 RES1   0.0000
    75 H25      9.3053   6.4056   8.5154   H         1 RES1   0.0000
    76 H26      9.5827   7.9777   8.4022   H         1 RES1   0.0000
    77 H27      9.5516   7.0735   7.0821   H         1 RES1   0.0000
    78 C39      6.9973   7.7074   9.1685   C.3       1 RES1   0.0000
    79 H28      6.0255   7.7320   9.0400   H         1 RES1   0.0000
    80 H29      7.3003   8.5633   9.5348   H         1 RES1   0.0000
    81 H30      7.2256   6.9853   9.7904   H         1 RES1   0.0000
    82 C40      4.6913   2.0718   1.7842   C.3       1 RES1   0.0000
    83 C41      3.3471   1.8489   2.3625   C.3       1 RES1   0.0000
    84 H31      2.7628   2.6012   2.1315   H         1 RES1   0.0000
    85 H32      3.4189   1.7793   3.3378   H         1 RES1   0.0000
    86 H33      2.9695   1.0195   2.0029   H         1 RES1   0.0000
    87 C42      5.6644   0.9126   2.0733   C.3       1 RES1   0.0000
    88 H34      5.2898   0.0770   1.7257   H         1 RES1   0.0000
    89 H35      5.7989   0.8335   3.0408   H         1 RES1   0.0000
    90 H36      6.5241   1.0919   1.6378   H         1 RES1   0.0000
    91 C43      4.6205   2.0458   0.2507   C.3       1 RES1   0.0000
    92 H37      3.9809   2.7207  -0.0583   H         1 RES1   0.0000
    93 H38      4.3308   1.1591  -0.0479   H         1 RES1   0.0000
    94 H39      5.5068   2.2421  -0.1198   H         1 RES1   0.0000
    95 C44      7.9879  10.0001   1.5781   C.3       1 RES1   0.0000
    96 H40      8.0993  10.0026   2.5715   H         1 RES1   0.0000
    97 C45      9.2807  10.4903   0.9690   C.3       1 RES1   0.0000
    98 H41     10.0186   9.9165   1.2640   H         1 RES1   0.0000
    99 H42      9.4485  11.4118   1.2574   H         1 RES1   0.0000
   100 H43      9.2141  10.4605  -0.0079   H         1 RES1   0.0000
   101 C46      6.8009  10.8997   1.2443   C.3       1 RES1   0.0000
   102 H44      6.6396  10.8833   0.2771   H         1 RES1   0.0000
   103 H45      6.9971  11.8178   1.5261   H         1 RES1   0.0000
   104 H46      6.0031  10.5777   1.7133   H         1 RES1   0.0000
   105 F1      13.5382   4.9192   3.5114   F         1 RES1   0.0000
   106 F2      12.0103   3.4833   3.6114   F         1 RES1   0.0000
   107 F3      12.3889   4.4484   1.8134   F         1 RES1   0.0000
@<TRIPOS>BOND
     1     1     3    1
     2     2    20    1
     3     3    30   ar
     4     4     1    1
     5     5     4    1
     6     6    54    1
     7     7    54    1
     8     8    66    1
     9     9    67    1
    10    10    16    1
    11    11    28    1
    12    12    33    1
    13    13     1    1
    14    14    13   ar
    15    15    14    1
    16    16    14   ar
    17    17    16   ar
    18    18    17    1
    19    19    17   ar
    20    20    13   ar
    21    21    19    1
    22    22    21   ar
    23    23    22    1
    24    24    22   ar
    25    25    24    1
    26    26    24   ar
    27    27    26    1
    28    28    26   ar
    29    29     2    1
    30    30     2    1
    31    31    30   ar
    32    32    31    1
    33    33    31   ar
    34    34    33   ar
    35    35    34    1
    36    36     3   ar
    37    37     4    1
    38    38    37    2
    39    39    38    1
    40    40     5    2
    41    41    40    1
    42    42    10    1
    43    43    42    1
    44    44    42    1
    45    45    42    1
    46    46    11    1
    47    47    46    1
    48    48    46    1
    49    49    46    1
    50    50    12    1
    51    51    50    1
    52    52    50    1
    53    53    50    1
    54    54     1    1
    55    55     6    1
    56    56    55    1
    57    57     7    1
    58    58    57    1
    59    59     1    1
    60    60     7    1
    61    61    60   ar
    62    62    61    1
    63    63    61   ar
    64    64    63   ar
    65    65    64    1
    66    66    59   ar
    67    67     1    1
    68    68     8    1
    69    69    68    1
    70    70     9    1
    71    71    70    1
    72    72     6    1
    73    73    72    1
    74    74    72    1
    75    75    74    1
    76    76    74    1
    77    77    74    1
    78    78    72    1
    79    79    78    1
    80    80    78    1
    81    81    78    1
    82    82    63    1
    83    83    82    1
    84    84    83    1
    85    85    83    1
    86    86    83    1
    87    87    82    1
    88    88    87    1
    89    89    87    1
    90    90    87    1
    91    91    82    1
    92    92    91    1
    93    93    91    1
    94    94    91    1
    95    95     9    1
    96    96    95    1
    97    97    95    1
    98    98    97    1
    99    99    97    1
   100   100    97    1
   101   101    95    1
   102   102   101    1
   103   103   101    1
   104   104   101    1
   105   105    41    1
   106   106    41    1
   107   107    41    1
   108     8    67    1
   109    19    20   ar
   110    21    29   ar
   111    28    29   ar
   112    34    36   ar
   113    36    37    1
   114    38    40    1
   115    55    57    2
   116    59    60   ar
   117    64    66   ar
   118    68    70    2
@<TRIPOS>SUBSTRUCTURE
     1 RES1        1 GROUP             0 ****  ****    0  
