@<TRIPOS>MOLECULE
01
   107   118     1     0     0
SMALL
NO_CHARGES
****
Generated from the CSD

@<TRIPOS>ATOM
     1 Ir1      6.9203  15.6875   8.1152   Ir        1 RES1   0.0000
     2 F1       3.1669  21.7841   3.7829   F         1 RES1   0.0000
     3 F2       1.9085  20.4168   2.7635   F         1 RES1   0.0000
     4 F3       1.2744  21.3214   4.5583   F         1 RES1   0.0000
     5 F4       3.7719  18.0006  13.2463   F         1 RES1   0.0000
     6 F5       5.0893  16.6369  14.2039   F         1 RES1   0.0000
     7 F6       3.7534  15.9428  12.6741   F         1 RES1   0.0000
     8 F7       5.8527  13.5893   2.1118   F         1 RES1   0.0000
     9 F8       5.5880  11.8929   3.3522   F         1 RES1   0.0000
    10 F9       4.4573  13.6632   3.7100   F         1 RES1   0.0000
    11 O1       8.3229  18.4395   9.2159   O.3       1 RES1   0.0000
    12 O2       9.7317  14.6695   6.8280   O.3       1 RES1   0.0000
    13 N1       5.9225  18.1793   6.3498   N.pl3     1 RES1   0.0000
    14 N2       2.4852  17.5549   5.8340   N.ar      1 RES1   0.0000
    15 N3       4.4610  16.6719   6.9131   N.pl3     1 RES1   0.0000
    16 N4       6.1103  13.2463   9.4667   N.pl3     1 RES1   0.0000
    17 N5       5.5080  11.2378  10.6628   N.ar      1 RES1   0.0000
    18 N6       8.2117  13.4147  10.0035   N.pl3     1 RES1   0.0000
    19 N7       8.9472  16.5302   8.0209   N.ar      1 RES1   0.0000
    20 C1       5.8055  17.0271   7.0290   C.3       1 RES1   0.0000
    21 C2       4.6974  18.5756   5.8075   C.ar      1 RES1   0.0000
    22 C3       4.2644  19.6600   5.0741   C.ar      1 RES1   0.0000
    23 H1       4.8496  20.3623   4.8132   H         1 RES1   0.0000
    24 C4       2.9120  19.6579   4.7427   C.ar      1 RES1   0.0000
    25 C5       2.0870  18.5982   5.1171   C.ar      1 RES1   0.0000
    26 H2       1.1776  18.6260   4.8404   H         1 RES1   0.0000
    27 C6       3.7760  17.5857   6.1565   C.ar      1 RES1   0.0000
    28 C7       4.0509  15.4684   7.5592   C.ar      1 RES1   0.0000
    29 C8       2.7786  14.9201   7.5990   C.ar      1 RES1   0.0000
    30 H3       2.0513  15.3532   7.1662   H         1 RES1   0.0000
    31 C9       2.5837  13.7289   8.2826   C.ar      1 RES1   0.0000
    32 C10      3.6672  13.0984   8.9233   C.ar      1 RES1   0.0000
    33 H4       3.5475  12.2805   9.3891   H         1 RES1   0.0000
    34 C11      4.9046  13.6961   8.8581   C.ar      1 RES1   0.0000
    35 C12      5.1279  14.8851   8.1921   C.ar      1 RES1   0.0000
    36 C13      6.3699  12.1845  10.2939   C.ar      1 RES1   0.0000
    37 C14      6.0497  10.3260  11.4956   C.ar      1 RES1   0.0000
    38 H5       5.4941   9.6214  11.8068   H         1 RES1   0.0000
    39 C15      7.3631  10.3485  11.9231   C.ar      1 RES1   0.0000
    40 C16      8.2250  11.3364  11.5045   C.ar      1 RES1   0.0000
    41 H6       9.1308  11.3599  11.7916   H         1 RES1   0.0000
    42 C17      7.7202  12.2770  10.6595   C.ar      1 RES1   0.0000
    43 C18      7.2482  14.0205   9.2712   C.3       1 RES1   0.0000
    44 C19      7.2113  18.8467   6.1035   C.3       1 RES1   0.0000
    45 H7       7.9178  18.3058   6.5611   H         1 RES1   0.0000
    46 C20      7.5170  18.8180   4.6036   C.3       1 RES1   0.0000
    47 H8       8.4107  19.1872   4.4449   H         1 RES1   0.0000
    48 H9       6.8517  19.3530   4.1240   H         1 RES1   0.0000
    49 H10      7.4851  17.8919   4.2819   H         1 RES1   0.0000
    50 C21      7.2667  20.2412   6.6877   C.3       1 RES1   0.0000
    51 H11      8.1769  20.5937   6.6058   H         1 RES1   0.0000
    52 H12      7.0116  20.2093   7.6331   H         1 RES1   0.0000
    53 H13      6.6457  20.8229   6.2011   H         1 RES1   0.0000
    54 C22      2.3271  20.7895   3.9563   C.3       1 RES1   0.0000
    55 C23      1.2046  13.0471   8.3335   C.3       1 RES1   0.0000
    56 C24      0.1026  13.9487   7.8000   C.3       1 RES1   0.0000
    57 H14     -0.7687  13.5292   7.9598   H         1 RES1   0.0000
    58 H15      0.2285  14.0838   6.8377   H         1 RES1   0.0000
    59 H16      0.1374  14.8140   8.2588   H         1 RES1   0.0000
    60 C25      0.8516  12.7123   9.7925   C.3       1 RES1   0.0000
    61 H17     -0.0607  12.3600   9.8365   H         1 RES1   0.0000
    62 H18      0.9153  13.5246  10.3387   H         1 RES1   0.0000
    63 H19      1.4791  12.0409  10.1337   H         1 RES1   0.0000
    64 C26      1.2682  11.8005   7.4985   C.3       1 RES1   0.0000
    65 H20      0.3799  11.3891   7.4558   H         1 RES1   0.0000
    66 H21      1.9011  11.1697   7.9016   H         1 RES1   0.0000
    67 H22      1.5667  12.0282   6.5931   H         1 RES1   0.0000
    68 C27      7.8248   9.3135  12.8972   C.3       1 RES1   0.0000
    69 F10      9.0151   8.8617  12.6686   F         1 RES1   0.0000
    70 F11      6.9978   8.3298  13.0950   F         1 RES1   0.0000
    71 F12      7.9357   9.8782  14.1453   F         1 RES1   0.0000
    72 C28      9.5856  13.9199  10.1437   C.3       1 RES1   0.0000
    73 H23      9.6479  14.7481   9.5859   H         1 RES1   0.0000
    74 C29     10.5891  12.9341   9.5760   C.3       1 RES1   0.0000
    75 H24     11.4858  13.3266   9.6062   H         1 RES1   0.0000
    76 H25     10.3533  12.7281   8.6469   H         1 RES1   0.0000
    77 H26     10.5734  12.1109  10.1069   H         1 RES1   0.0000
    78 C30      9.8626  14.3368  11.5796   C.3       1 RES1   0.0000
    79 H27     10.7444  14.7603  11.6333   H         1 RES1   0.0000
    80 H28      9.8448  13.5453  12.1582   H         1 RES1   0.0000
    81 H29      9.1763  14.9712  11.8737   H         1 RES1   0.0000
    82 N8       6.3514  18.3436  12.2301   N.ar      1 RES1   0.0000
    83 C31      6.6449  16.7745   9.8687   C.ar      1 RES1   0.0000
    84 C32      5.7317  16.4583  10.8583   C.ar      1 RES1   0.0000
    85 H30      5.1857  15.6861  10.7664   H         1 RES1   0.0000
    86 C33      5.6065  17.2510  11.9750   C.ar      1 RES1   0.0000
    87 C34      7.2564  18.6598  11.3012   C.ar      1 RES1   0.0000
    88 H31      7.8103  19.4207  11.4346   H         1 RES1   0.0000
    89 C35      7.4042  17.9102  10.1515   C.ar      1 RES1   0.0000
    90 C36      9.2860  17.6699   8.6250   C.ar      1 RES1   0.0000
    91 C37     10.5563  18.1957   8.6416   C.ar      1 RES1   0.0000
    92 H32     10.7419  19.0153   9.0843   H         1 RES1   0.0000
    93 C38     11.5454  17.4995   7.9988   C.ar      1 RES1   0.0000
    94 H33     12.4353  17.8348   7.9924   H         1 RES1   0.0000
    95 C39     11.2519  16.3268   7.3692   C.ar      1 RES1   0.0000
    96 H34     11.9315  15.8289   6.9282   H         1 RES1   0.0000
    97 C40      9.9529  15.8771   7.3869   C.ar      1 RES1   0.0000
    98 N9       6.3904  14.3265   5.4363   N.ar      1 RES1   0.0000
    99 C41      8.6601  14.4272   5.9544   C.ar      1 RES1   0.0000
   100 C42      9.0007  13.8275   4.7714   C.ar      1 RES1   0.0000
   101 H35      9.9152  13.6829   4.5596   H         1 RES1   0.0000
   102 C43      8.0301  13.4373   3.8989   C.ar      1 RES1   0.0000
   103 H36      8.2310  13.0050   3.0771   H         1 RES1   0.0000
   104 C44      6.7454  13.7125   4.2866   C.ar      1 RES1   0.0000
   105 C45      7.3467  14.7044   6.2957   C.ar      1 RES1   0.0000
   106 C46      4.5599  16.9388  13.0176   C.3       1 RES1   0.0000
   107 C47      5.6434  13.2401   3.3809   C.3       1 RES1   0.0000
@<TRIPOS>BOND
     1     1    19    1
     2     2    54    1
     3     3    54    1
     4     4    54    1
     5     5   106    1
     6     6   106    1
     7     7   106    1
     8     8   107    1
     9     9   107    1
    10    10   107    1
    11    11    89    1
    12    12    97    1
    13    13    20    1
    14    14    25   ar
    15    15    20    1
    16    16    34    1
    17    17    36   ar
    18    18    42    1
    19    19    90   ar
    20    20     1    1
    21    21    13    1
    22    22    21   ar
    23    23    22    1
    24    24    22   ar
    25    25    24   ar
    26    26    25    1
    27    27    14   ar
    28    28    15    1
    29    29    28   ar
    30    30    29    1
    31    31    29   ar
    32    32    31   ar
    33    33    32    1
    34    34    32   ar
    35    35     1    1
    36    36    16    1
    37    37    17   ar
    38    38    37    1
    39    39    37   ar
    40    40    39   ar
    41    41    40    1
    42    42    36   ar
    43    43     1    1
    44    44    13    1
    45    45    44    1
    46    46    44    1
    47    47    46    1
    48    48    46    1
    49    49    46    1
    50    50    44    1
    51    51    50    1
    52    52    50    1
    53    53    50    1
    54    54    24    1
    55    55    31    1
    56    56    55    1
    57    57    56    1
    58    58    56    1
    59    59    56    1
    60    60    55    1
    61    61    60    1
    62    62    60    1
    63    63    60    1
    64    64    55    1
    65    65    64    1
    66    66    64    1
    67    67    64    1
    68    68    39    1
    69    69    68    1
    70    70    68    1
    71    71    68    1
    72    72    18    1
    73    73    72    1
    74    74    72    1
    75    75    74    1
    76    76    74    1
    77    77    74    1
    78    78    72    1
    79    79    78    1
    80    80    78    1
    81    81    78    1
    82    82    86   ar
    83    83     1    1
    84    84    83   ar
    85    85    84    1
    86    86    84   ar
    87    87    82   ar
    88    88    87    1
    89    89    83   ar
    90    90    11    1
    91    91    90   ar
    92    92    91    1
    93    93    91   ar
    94    94    93    1
    95    95    93   ar
    96    96    95    1
    97    97    19   ar
    98    98   104   ar
    99    99    12    1
   100   100    99   ar
   101   101   100    1
   102   102   100   ar
   103   103   102    1
   104   104   102   ar
   105   105     1    1
   106   106    86    1
   107   107   104    1
   108    15    27    1
   109    16    43    1
   110    18    43    1
   111    21    27   ar
   112    28    35   ar
   113    34    35   ar
   114    40    42   ar
   115    87    89   ar
   116    95    97   ar
   117    98   105   ar
   118    99   105   ar
@<TRIPOS>SUBSTRUCTURE
     1 RES1        1 GROUP             0 ****  ****    0  
