@<TRIPOS>MOLECULE
01
    82    92     1     0     0
SMALL
NO_CHARGES
****
Generated from the CSD

@<TRIPOS>ATOM
     1 Ir1      2.8044   3.1478   3.6426   Ir        1 RES1   0.0000
     2 N1       2.5473   3.8004   1.7066   N.ar      1 RES1   0.0000
     3 N2       4.7939   3.5463   3.0263   N.2       1 RES1   0.0000
     4 N3       6.0186   3.3990   3.5534   N.2       1 RES1   0.0000
     5 N4       2.5433   6.2454   4.5510   N.pl3     1 RES1   0.0000
     6 N5       2.6448   4.7270   6.0819   N.pl3     1 RES1   0.0000
     7 N6       3.1052   0.4105   4.5970   N.pl3     1 RES1   0.0000
     8 N7       3.1560   0.1916   2.4658   N.pl3     1 RES1   0.0000
     9 C1       0.8084   2.9063   3.4132   C.ar      1 RES1   0.0000
    10 C2      -0.0619   2.2586   4.3188   C.ar      1 RES1   0.0000
    11 H1       0.2657   1.9575   5.1575   H         1 RES1   0.0000
    12 C3      -1.3646   2.0657   3.9926   C.ar      1 RES1   0.0000
    13 H2      -1.9007   1.5235   4.5614   H         1 RES1   0.0000
    14 C4      -1.9507   2.6287   2.8611   C.ar      1 RES1   0.0000
    15 C5      -3.3480   2.5701   2.6038   C.ar      1 RES1   0.0000
    16 H3      -3.8886   2.0292   3.1643   H         1 RES1   0.0000
    17 C6      -3.9283   3.2387   1.6146   C.ar      1 RES1   0.0000
    18 H4      -4.8670   3.1852   1.4870   H         1 RES1   0.0000
    19 C7      -3.1582   4.0063   0.7717   C.ar      1 RES1   0.0000
    20 H5      -3.5686   4.5016   0.0732   H         1 RES1   0.0000
    21 C8      -1.8097   4.0545   0.9432   C.ar      1 RES1   0.0000
    22 H6      -1.2978   4.5811   0.3367   H         1 RES1   0.0000
    23 C9      -1.1350   3.3807   1.9513   C.ar      1 RES1   0.0000
    24 C10      0.2929   3.3859   2.1856   C.ar      1 RES1   0.0000
    25 C11      1.2878   3.8108   1.2109   C.ar      1 RES1   0.0000
    26 C12      1.1539   4.1080  -0.1506   C.ar      1 RES1   0.0000
    27 H7       0.2981   4.0728  -0.5605   H         1 RES1   0.0000
    28 C13      2.2656   4.4533  -0.9014   C.ar      1 RES1   0.0000
    29 H8       2.1600   4.6840  -1.8175   H         1 RES1   0.0000
    30 C14      3.5073   4.4690  -0.3493   C.ar      1 RES1   0.0000
    31 H9       4.2628   4.7349  -0.8596   H         1 RES1   0.0000
    32 C15      3.6427   4.0845   0.9767   C.ar      1 RES1   0.0000
    33 C16      4.8888   3.9086   1.7066   C.2       1 RES1   0.0000
    34 C17      6.2264   3.9946   1.3573   C.2       1 RES1   0.0000
    35 H10      6.6044   4.2161   0.5145   H         1 RES1   0.0000
    36 C18      6.8827   3.6805   2.5411   C.2       1 RES1   0.0000
    37 C19      8.3210   3.6492   2.8109   C.3       1 RES1   0.0000
    38 C20      2.9051   2.5127   5.5068   C.ar      1 RES1   0.0000
    39 C21      2.7563   3.4081   6.5546   C.ar      1 RES1   0.0000
    40 C22      2.6972   2.9858   7.8805   C.ar      1 RES1   0.0000
    41 H11      2.5978   3.6075   8.5916   H         1 RES1   0.0000
    42 C23      2.7905   1.6278   8.1252   C.ar      1 RES1   0.0000
    43 C24      2.9361   0.6764   7.1004   C.ar      1 RES1   0.0000
    44 H12      2.9975  -0.2528   7.2887   H         1 RES1   0.0000
    45 C25      2.9897   1.1625   5.7954   C.ar      1 RES1   0.0000
    46 C26      2.6208   4.9043   4.7099   C.3       1 RES1   0.0000
    47 C27      2.5606   5.9469   6.7261   C.2       1 RES1   0.0000
    48 H13      2.5429   6.0877   7.6651   H         1 RES1   0.0000
    49 C28      2.5069   6.8905   5.7807   C.2       1 RES1   0.0000
    50 H14      2.4559   7.8289   5.9230   H         1 RES1   0.0000
    51 C29      2.3471   6.9009   3.2375   C.3       1 RES1   0.0000
    52 H15      2.8588   6.3887   2.5495   H         1 RES1   0.0000
    53 C30      2.8532   8.3228   3.2480   C.3       1 RES1   0.0000
    54 H16      2.2943   8.8650   3.8420   H         1 RES1   0.0000
    55 H17      2.8148   8.6890   2.3403   H         1 RES1   0.0000
    56 H18      3.7792   8.3371   3.5680   H         1 RES1   0.0000
    57 C31      0.8892   6.8501   2.8778   C.3       1 RES1   0.0000
    58 H19      0.5691   5.9248   2.9322   H         1 RES1   0.0000
    59 H20      0.7675   7.1850   1.9639   H         1 RES1   0.0000
    60 H21      0.3772   7.4079   3.5011   H         1 RES1   0.0000
    61 C32      3.0340   1.1313   3.4237   C.3       1 RES1   0.0000
    62 C33      3.2541  -0.9410   4.3460   C.2       1 RES1   0.0000
    63 H22      3.3172  -1.6369   4.9902   H         1 RES1   0.0000
    64 C34      3.2928  -1.0713   3.0138   C.2       1 RES1   0.0000
    65 H23      3.3947  -1.8846   2.5327   H         1 RES1   0.0000
    66 C35      3.1193   0.4731   1.0143   C.3       1 RES1   0.0000
    67 H24      2.9807   1.4571   0.9014   H         1 RES1   0.0000
    68 C36      1.9469  -0.2346   0.3576   C.3       1 RES1   0.0000
    69 H25      2.0603  -1.2042   0.4455   H         1 RES1   0.0000
    70 H26      1.9146   0.0039  -0.5940   H         1 RES1   0.0000
    71 H27      1.1129   0.0391   0.7927   H         1 RES1   0.0000
    72 C37      4.4459   0.1225   0.3848   C.3       1 RES1   0.0000
    73 H28      5.1639   0.6125   0.8387   H         1 RES1   0.0000
    74 H29      4.4334   0.3701  -0.5647   H         1 RES1   0.0000
    75 H30      4.6036  -0.8406   0.4685   H         1 RES1   0.0000
    76 C38      2.6996   1.1208   9.5202   C.3       1 RES1   0.0000
    77 F1       9.1035   3.9229   1.6941   F         1 RES1   0.0000
    78 F2       8.7015   4.7492   3.6349   F         1 RES1   0.0000
    79 F3       8.8457   2.6796   3.3881   F         1 RES1   0.0000
    80 F4       2.6174   2.1087  10.4256   F         1 RES1   0.0000
    81 F5       3.7594   0.4053   9.8877   F         1 RES1   0.0000
    82 F6       1.6435   0.3115   9.7145   F         1 RES1   0.0000
@<TRIPOS>BOND
     1     1     2    1
     2     2    25   ar
     3     3     1    1
     4     4     3    1
     5     5    46    1
     6     6    39    1
     7     7    45    1
     8     8    61    1
     9     9     1    1
    10    10     9   ar
    11    11    10    1
    12    12    10   ar
    13    13    12    1
    14    14    12   ar
    15    15    14   ar
    16    16    15    1
    17    17    15   ar
    18    18    17    1
    19    19    17   ar
    20    20    19    1
    21    21    19   ar
    22    22    21    1
    23    23    14   ar
    24    24     9   ar
    25    25    24    1
    26    26    25   ar
    27    27    26    1
    28    28    26   ar
    29    29    28    1
    30    30    28   ar
    31    31    30    1
    32    32     2   ar
    33    33     3    1
    34    34    33    2
    35    35    34    1
    36    36     4    2
    37    37    36    1
    38    38     1    1
    39    39    38   ar
    40    40    39   ar
    41    41    40    1
    42    42    40   ar
    43    43    42   ar
    44    44    43    1
    45    45    38   ar
    46    46     1    1
    47    47     6    1
    48    48    47    1
    49    49     5    1
    50    50    49    1
    51    51     5    1
    52    52    51    1
    53    53    51    1
    54    54    53    1
    55    55    53    1
    56    56    53    1
    57    57    51    1
    58    58    57    1
    59    59    57    1
    60    60    57    1
    61    61     1    1
    62    62     7    1
    63    63    62    1
    64    64     8    1
    65    65    64    1
    66    66     8    1
    67    67    66    1
    68    68    66    1
    69    69    68    1
    70    70    68    1
    71    71    68    1
    72    72    66    1
    73    73    72    1
    74    74    72    1
    75    75    72    1
    76    76    42    1
    77    77    37    1
    78    78    37    1
    79    79    37    1
    80    80    76    1
    81    81    76    1
    82    82    76    1
    83     6    46    1
    84     7    61    1
    85    21    23   ar
    86    23    24   ar
    87    30    32   ar
    88    32    33    1
    89    34    36    1
    90    43    45   ar
    91    47    49    2
    92    62    64    2
@<TRIPOS>SUBSTRUCTURE
     1 RES1        1 GROUP             0 ****  ****    0  
