@<TRIPOS>MOLECULE
01
    67    76     1     0     0
SMALL
NO_CHARGES
****
Generated from the CSD

@<TRIPOS>ATOM
     1 Ir1      5.5894   3.8237  15.5231   Ir        1 RES1   0.0000
     2 N1       5.6032   2.9913  13.6440   N.ar      1 RES1   0.0000
     3 N2       3.7806   4.4907  14.6716   N.2       1 RES1   0.0000
     4 N3       2.7462   5.2817  15.0803   N.2       1 RES1   0.0000
     5 N4       3.9633   1.2272  16.5047   N.pl3     1 RES1   0.0000
     6 N5       4.6349   2.6078  18.0038   N.pl3     1 RES1   0.0000
     7 N6       6.6525   6.4082  16.3436   N.pl3     1 RES1   0.0000
     8 N7       6.9112   6.4307  14.2104   N.pl3     1 RES1   0.0000
     9 C1       7.3648   2.8018  15.5873   C.ar      1 RES1   0.0000
    10 C2       8.2619   2.6514  16.6336   C.ar      1 RES1   0.0000
    11 H1       8.0908   3.0950  17.4560   H         1 RES1   0.0000
    12 C3       9.3962   1.8724  16.5132   C.ar      1 RES1   0.0000
    13 C4       9.6955   1.2437  15.3058   C.ar      1 RES1   0.0000
    14 H2      10.4869   0.7249  15.2160   H         1 RES1   0.0000
    15 C5       8.8350   1.3836  14.2460   C.ar      1 RES1   0.0000
    16 H3       9.0405   0.9700  13.4168   H         1 RES1   0.0000
    17 C6       7.6522   2.1340  14.3732   C.ar      1 RES1   0.0000
    18 C7       6.6781   2.2062  13.2879   C.ar      1 RES1   0.0000
    19 C8       6.6897   1.6092  12.0432   C.ar      1 RES1   0.0000
    20 H4       7.4219   1.0663  11.7787   H         1 RES1   0.0000
    21 C9       5.6325   1.8077  11.1885   C.ar      1 RES1   0.0000
    22 H5       5.6432   1.3971  10.3322   H         1 RES1   0.0000
    23 C10      4.5497   2.5927  11.5531   C.ar      1 RES1   0.0000
    24 H6       3.8217   2.7221  10.9562   H         1 RES1   0.0000
    25 C11      4.5534   3.1898  12.8114   C.ar      1 RES1   0.0000
    26 C12      3.5542   4.0545  13.3964   C.2       1 RES1   0.0000
    27 C13      2.3328   4.5629  12.9606   C.2       1 RES1   0.0000
    28 H7       1.9019   4.4245  12.1263   H         1 RES1   0.0000
    29 C14      1.8990   5.3118  14.0272   C.2       1 RES1   0.0000
    30 C15     10.3319   1.7310  17.6663   C.3       1 RES1   0.0000
    31 C16      0.6534   6.0923  14.1392   C.3       1 RES1   0.0000
    32 C17      5.6826   4.5599  17.3475   C.ar      1 RES1   0.0000
    33 C18      5.2103   3.8545  18.4328   C.ar      1 RES1   0.0000
    34 C19      5.2978   4.3478  19.7199   C.ar      1 RES1   0.0000
    35 H8       4.9762   3.8425  20.4575   H         1 RES1   0.0000
    36 C20      5.8658   5.6006  19.9115   C.ar      1 RES1   0.0000
    37 C21      6.3570   6.3721  18.8465   C.ar      1 RES1   0.0000
    38 H9       6.7453   7.2278  18.9890   H         1 RES1   0.0000
    39 C22      6.2466   5.8156  17.5629   C.ar      1 RES1   0.0000
    40 C23      5.9672   6.1615  21.3020   C.3       1 RES1   0.0000
    41 C24      4.6518   2.3867  16.6353   C.3       1 RES1   0.0000
    42 C25      3.9680   1.6167  18.6668   C.2       1 RES1   0.0000
    43 H10      3.8330   1.5535  19.6062   H         1 RES1   0.0000
    44 C26      3.5421   0.7580  17.7494   C.2       1 RES1   0.0000
    45 H11      3.0418  -0.0331  17.9088   H         1 RES1   0.0000
    46 C27      3.5961   0.6362  15.2346   C.3       1 RES1   0.0000
    47 H12      4.2978   0.8181  14.5750   H         1 RES1   0.0000
    48 H13      2.7507   1.0212  14.9260   H         1 RES1   0.0000
    49 H14      3.4945  -0.3324  15.3414   H         1 RES1   0.0000
    50 C28      6.4880   5.6397  15.1939   C.3       1 RES1   0.0000
    51 C29      7.1810   7.6504  16.0180   C.2       1 RES1   0.0000
    52 H15      7.3907   8.3527  16.6200   H         1 RES1   0.0000
    53 C30      7.3360   7.6639  14.6818   C.2       1 RES1   0.0000
    54 H16      7.6731   8.3828  14.1595   H         1 RES1   0.0000
    55 C31      6.9386   6.0171  12.7978   C.3       1 RES1   0.0000
    56 H17      7.4879   5.2126  12.7029   H         1 RES1   0.0000
    57 H18      7.3188   6.7390  12.2535   H         1 RES1   0.0000
    58 H19      6.0250   5.8277  12.4960   H         1 RES1   0.0000
    59 F1      11.2229   2.7732  17.7036   F         1 RES1   0.0000
    60 F2      11.0869   0.6692  17.6392   F         1 RES1   0.0000
    61 F3       9.7530   1.8152  18.8398   F         1 RES1   0.0000
    62 F4       0.0950   6.3991  12.9860   F         1 RES1   0.0000
    63 F5      -0.3197   5.3870  14.7666   F         1 RES1   0.0000
    64 F6       0.7323   7.1526  14.9209   F         1 RES1   0.0000
    65 F7       6.8546   5.5434  22.0295   F         1 RES1   0.0000
    66 F8       4.7867   6.0412  21.9532   F         1 RES1   0.0000
    67 F9       6.2163   7.4579  21.3325   F         1 RES1   0.0000
@<TRIPOS>BOND
     1     1     2    1
     2     2    18   ar
     3     3     1    1
     4     4     3    1
     5     5    41    1
     6     6    33    1
     7     7    39    1
     8     8    50    1
     9     9     1    1
    10    10     9   ar
    11    11    10    1
    12    12    10   ar
    13    13    12   ar
    14    14    13    1
    15    15    13   ar
    16    16    15    1
    17    17     9   ar
    18    18    17    1
    19    19    18   ar
    20    20    19    1
    21    21    19   ar
    22    22    21    1
    23    23    21   ar
    24    24    23    1
    25    25     2   ar
    26    26     3    1
    27    27    26    2
    28    28    27    1
    29    29     4    2
    30    30    12    1
    31    31    29    1
    32    32     1    1
    33    33    32   ar
    34    34    33   ar
    35    35    34    1
    36    36    34   ar
    37    37    36   ar
    38    38    37    1
    39    39    32   ar
    40    40    36    1
    41    41     1    1
    42    42     6    1
    43    43    42    1
    44    44     5    1
    45    45    44    1
    46    46     5    1
    47    47    46    1
    48    48    46    1
    49    49    46    1
    50    50     1    1
    51    51     7    1
    52    52    51    1
    53    53     8    1
    54    54    53    1
    55    55     8    1
    56    56    55    1
    57    57    55    1
    58    58    55    1
    59    59    30    1
    60    60    30    1
    61    61    30    1
    62    62    31    1
    63    63    31    1
    64    64    31    1
    65    65    40    1
    66    66    40    1
    67    67    40    1
    68     6    41    1
    69     7    50    1
    70    15    17   ar
    71    23    25   ar
    72    25    26    1
    73    27    29    1
    74    37    39   ar
    75    42    44    2
    76    51    53    2
@<TRIPOS>SUBSTRUCTURE
     1 RES1        1 GROUP             0 ****  ****    0  
