@<TRIPOS>MOLECULE
01
    87    96     1     0     0
SMALL
NO_CHARGES
****
Generated from the CSD

@<TRIPOS>ATOM
     1 Ir1     -1.2778   8.3517  14.3822   Ir        1 RES1   0.0000
     2 Br1     -2.5574   7.3396  16.4595   Br        1 RES1   0.0000
     3 F1       0.4243  12.1200  10.8560   F         1 RES1   0.0000
     4 N1       0.3770  10.0216  16.1414   N.pl3     1 RES1   0.0000
     5 N2       1.6669   8.3797  15.6828   N.pl3     1 RES1   0.0000
     6 N3      -0.0604   6.8227  12.2298   N.pl3     1 RES1   0.0000
     7 N4      -3.6373  10.0058  13.9694   N.pl3     1 RES1   0.0000
     8 C1       0.4160   8.8133  15.4734   C.3       1 RES1   0.0000
     9 C2      -1.6915  10.1608  15.1558   C.ar      1 RES1   0.0000
    10 N5      -0.5772   5.2799  13.6886   N.pl3     1 RES1   0.0000
    11 C3       1.5685  10.2906  16.7631   C.2       1 RES1   0.0000
    12 H1       1.7713  11.0350  17.2833   H         1 RES1   0.0000
    13 N6       1.1884   5.4636  10.6285   N.ar      1 RES1   0.0000
    14 N7      -4.0421   8.2851  12.7362   N.pl3     1 RES1   0.0000
    15 C4       2.3840   9.2666  16.4706   C.2       1 RES1   0.0000
    16 H2       3.2668   9.1701  16.7458   H         1 RES1   0.0000
    17 C5      -1.0489  12.0678  16.5098   C.ar      1 RES1   0.0000
    18 H3      -0.4408  12.4880  17.0743   H         1 RES1   0.0000
    19 C6      -0.7955  10.8018  15.9782   C.ar      1 RES1   0.0000
    20 C7      -2.8653  10.8020  14.8490   C.ar      1 RES1   0.0000
    21 C8       0.4831   5.6397  11.7397   C.ar      1 RES1   0.0000
    22 C9      -0.6834   6.6242  13.4487   C.3       1 RES1   0.0000
    23 C10      2.2176   7.1123  15.2004   C.3       1 RES1   0.0000
    24 H4       3.1507   7.2349  14.9666   H         1 RES1   0.0000
    25 H5       1.7411   6.8371  14.4023   H         1 RES1   0.0000
    26 C11     -3.1164   8.7953  13.5932   C.3       1 RES1   0.0000
    27 C12      0.0552   8.1694  11.7790   C.ar      1 RES1   0.0000
    28 C13     -0.4216   9.1001  12.7066   C.ar      1 RES1   0.0000
    29 C14     -3.1673  12.0659  15.3182   C.ar      1 RES1   0.0000
    30 H6      -3.9578  12.4936  15.0796   H         1 RES1   0.0000
    31 C15      0.1692   4.6526  12.6745   C.ar      1 RES1   0.0000
    32 C16     -5.1023   9.1584  12.5995   C.2       1 RES1   0.0000
    33 H7      -5.8530   9.0281  12.0663   H         1 RES1   0.0000
    34 C17     -2.5736   2.6622  15.4877   C.ar      1 RES1   0.0000
    35 H8      -2.1993   2.7243  16.3371   H         1 RES1   0.0000
    36 C18      0.2874  10.7841  11.1475   C.ar      1 RES1   0.0000
    37 C19     -1.1117   4.5741  14.8330   C.3       1 RES1   0.0000
    38 H9      -1.4994   5.2198  15.4443   H         1 RES1   0.0000
    39 H10     -0.3810   4.1344  15.2960   H         1 RES1   0.0000
    40 C20      2.1028   6.0362  16.2458   C.3       1 RES1   0.0000
    41 H11      1.1699   5.9334  16.4933   H         1 RES1   0.0000
    42 H12      2.5901   6.3116  17.0386   H         1 RES1   0.0000
    43 C21     -0.2846  10.4437  12.3676   C.ar      1 RES1   0.0000
    44 H13     -0.5728  11.1075  12.9528   H         1 RES1   0.0000
    45 C22     -2.2450  12.6711  16.1584   C.ar      1 RES1   0.0000
    46 H14     -2.4368  13.5141  16.5000   H         1 RES1   0.0000
    47 C23      0.5893   8.5188  10.5427   C.ar      1 RES1   0.0000
    48 H15      0.8537   7.8624   9.9396   H         1 RES1   0.0000
    49 C24     -2.1616   3.5380  14.4922   C.ar      1 RES1   0.0000
    50 C25      0.5829   3.3614  12.4818   C.ar      1 RES1   0.0000
    51 H16      0.3783   2.6773  13.0775   H         1 RES1   0.0000
    52 C26     -3.9505   7.0134  12.0376   C.3       1 RES1   0.0000
    53 H17     -4.7639   6.5043  12.1831   H         1 RES1   0.0000
    54 H18     -3.2078   6.5007  12.3937   H         1 RES1   0.0000
    55 C27      2.6433   4.6905  15.7713   C.3       1 RES1   0.0000
    56 H19      2.1248   4.3879  15.0096   H         1 RES1   0.0000
    57 H20      3.5632   4.7989  15.4829   H         1 RES1   0.0000
    58 C28     -4.8575  10.2243  13.3666   C.2       1 RES1   0.0000
    59 H21     -5.4048  10.9686  13.4733   H         1 RES1   0.0000
    60 C29     -3.5343   1.6947  15.2343   C.ar      1 RES1   0.0000
    61 H22     -3.7959   1.1094  15.9075   H         1 RES1   0.0000
    62 C30      1.3298   3.1517  11.3312   C.ar      1 RES1   0.0000
    63 H23      1.6546   2.3011  11.1428   H         1 RES1   0.0000
    64 C31      1.5968   4.1916  10.4607   C.ar      1 RES1   0.0000
    65 H24      2.0975   3.9984   9.7013   H         1 RES1   0.0000
    66 C32     -2.7505   3.4561  13.2435   C.ar      1 RES1   0.0000
    67 H25     -2.5005   4.0535  12.5768   H         1 RES1   0.0000
    68 C33      0.7193   9.8627  10.2252   C.ar      1 RES1   0.0000
    69 H26      1.0881  10.1307   9.4151   H         1 RES1   0.0000
    70 C34     -4.1007   1.6030  13.9856   C.ar      1 RES1   0.0000
    71 H27     -4.7401   0.9505  13.8111   H         1 RES1   0.0000
    72 C35      2.5810   3.6426  16.8719   C.3       1 RES1   0.0000
    73 H28      2.8464   2.7903  16.5171   H         1 RES1   0.0000
    74 H29      1.6833   3.5833  17.2071   H         1 RES1   0.0000
    75 H30      3.1735   3.8908  17.5846   H         1 RES1   0.0000
    76 C36     -3.7133   2.4876  12.9759   C.ar      1 RES1   0.0000
    77 H31     -4.0976   2.4311  12.1314   H         1 RES1   0.0000
    78 C37     -3.7464   7.2330  10.5320   C.3       1 RES1   0.0000
    79 H32     -4.5972   7.4614  10.1266   H         1 RES1   0.0000
    80 H33     -3.1435   7.9818  10.4000   H         1 RES1   0.0000
    81 C38     -3.2029   6.0629   9.8702   C.3       1 RES1   0.0000
    82 H34     -3.8713   5.3605   9.8770   H         1 RES1   0.0000
    83 H35     -2.4362   5.7464  10.3727   H         1 RES1   0.0000
    84 C39     -2.7614   6.3301   8.3842   C.3       1 RES1   0.0000
    85 H36     -2.7849   5.5068   7.8908   H         1 RES1   0.0000
    86 H37     -1.8685   6.6834   8.3741   H         1 RES1   0.0000
    87 H38     -3.3603   6.9623   7.9808   H         1 RES1   0.0000
@<TRIPOS>BOND
     1     1     2    1
     2     3    36    1
     3     4     8    1
     4     5     8    1
     5     6    21    1
     6     7    20    1
     7     8     1    1
     8     9     1    1
     9    10    22    1
    10    11     4    1
    11    12    11    1
    12    13    21   ar
    13    14    26    1
    14    15     5    1
    15    16    15    1
    16    17    18    1
    17    19     4    1
    18    20     9   ar
    19    21    31   ar
    20    22     1    1
    21    23     5    1
    22    24    23    1
    23    25    23    1
    24    26     1    1
    25    27     6    1
    26    28     1    1
    27    29    20   ar
    28    30    29    1
    29    31    10    1
    30    32    14    1
    31    33    32    1
    32    34    35    1
    33    36    43   ar
    34    37    10    1
    35    38    37    1
    36    39    37    1
    37    40    23    1
    38    41    40    1
    39    42    40    1
    40    43    28   ar
    41    44    43    1
    42    45    17   ar
    43    46    45    1
    44    47    27   ar
    45    48    47    1
    46    49    34   ar
    47    50    31   ar
    48    51    50    1
    49    52    14    1
    50    53    52    1
    51    54    52    1
    52    55    40    1
    53    56    55    1
    54    57    55    1
    55    58     7    1
    56    59    58    1
    57    60    34   ar
    58    61    60    1
    59    62    50   ar
    60    63    62    1
    61    64    13   ar
    62    65    64    1
    63    66    49   ar
    64    67    66    1
    65    68    36   ar
    66    69    68    1
    67    70    60   ar
    68    71    70    1
    69    72    55    1
    70    73    72    1
    71    74    72    1
    72    75    72    1
    73    76    66   ar
    74    77    76    1
    75    78    52    1
    76    79    78    1
    77    80    78    1
    78    81    78    1
    79    82    81    1
    80    83    81    1
    81    84    81    1
    82    85    84    1
    83    86    84    1
    84    87    84    1
    85     6    22    1
    86     7    26    1
    87     9    19   ar
    88    11    15    2
    89    17    19   ar
    90    27    28   ar
    91    29    45   ar
    92    32    58    2
    93    37    49    1
    94    47    68   ar
    95    62    64   ar
    96    70    76   ar
@<TRIPOS>SUBSTRUCTURE
     1 RES1        1 GROUP             0 ****  ****    0  
