@<TRIPOS>MOLECULE
04
   142   156     1     0     0
SMALL
NO_CHARGES
****
Generated from the CSD

@<TRIPOS>ATOM
     1 Ir4     14.2109  18.3435  14.0458   Ir        1 RES1   0.0000
     2 F34     16.4692  12.7389  20.2537   F         1 RES1   0.0000
     3 F35     14.4969  12.8114  19.7012   F         1 RES1   0.0000
     4 F36     15.7953  11.8441  18.5388   F         1 RES1   0.0000
     5 F37     13.7065  14.6045   6.4282   F         1 RES1   0.0000
     6 F38     12.2127  13.6713   7.2351   F         1 RES1   0.0000
     7 F39     12.1151  15.6916   6.9504   F         1 RES1   0.0000
     8 F40     18.7372  25.7268  13.3315   F         1 RES1   0.0000
     9 F41     17.1001  25.6796  14.6745   F         1 RES1   0.0000
    10 F42     18.9500  24.9414  15.2438   F         1 RES1   0.0000
    11 N37     16.4526  17.2044  15.9927   N.pl3     1 RES1   0.0000
    12 N38     17.2392  14.5783  18.4626   N.ar      1 RES1   0.0000
    13 N39     14.9429  14.5536  17.7315   N.ar      1 RES1   0.0000
    14 N40     14.4598  16.3071  16.1066   N.pl3     1 RES1   0.0000
    15 N41     14.9544  15.8022  12.2748   N.pl3     1 RES1   0.0000
    16 N42     14.2947  14.0334   9.1086   N.ar      1 RES1   0.0000
    17 N43     13.0823  16.1043   9.3281   N.ar      1 RES1   0.0000
    18 N44     13.5256  17.2348  11.4462   N.pl3     1 RES1   0.0000
    19 N45     16.6471  19.9482  12.7378   N.pl3     1 RES1   0.0000
    20 N46     18.4955  23.1591  12.7535   N.ar      1 RES1   0.0000
    21 N47     16.6987  23.0672  14.3525   N.ar      1 RES1   0.0000
    22 N48     15.5132  20.9384  14.3179   N.pl3     1 RES1   0.0000
    23 C216    17.3777  19.4341  16.2499   C.ar      1 RES1   0.0000
    24 H199    16.5791  19.7108  16.6618   H         1 RES1   0.0000
    25 C217    18.4321  20.3129  16.0912   C.ar      1 RES1   0.0000
    26 H200    18.3451  21.2019  16.3840   H         1 RES1   0.0000
    27 C218    19.6045  19.9013  15.5113   C.ar      1 RES1   0.0000
    28 H201    20.3061  20.5153  15.3932   H         1 RES1   0.0000
    29 C219    19.7643  18.5916  15.0986   C.ar      1 RES1   0.0000
    30 H202    20.5838  18.3101  14.7367   H         1 RES1   0.0000
    31 C220    18.7138  17.6958  15.2183   C.ar      1 RES1   0.0000
    32 H203    18.8032  16.8091  14.9205   H         1 RES1   0.0000
    33 C221    17.5235  18.1409  15.7905   C.ar      1 RES1   0.0000
    34 C222    16.5273  16.1747  16.9088   C.ar      1 RES1   0.0000
    35 C223    17.5265  15.6365  17.6789   C.ar      1 RES1   0.0000
    36 H204    18.3936  15.9972  17.6604   H         1 RES1   0.0000
    37 C224    15.9907  14.1134  18.4198   C.ar      1 RES1   0.0000
    38 C225    15.2549  15.5933  16.9732   C.ar      1 RES1   0.0000
    39 C226    15.1959  17.2873  15.4618   C.3       1 RES1   0.0000
    40 C227    13.0739  16.2121  15.7759   C.ar      1 RES1   0.0000
    41 C228    12.2063  15.3288  16.3881   C.ar      1 RES1   0.0000
    42 H205    12.5160  14.7078  17.0220   H         1 RES1   0.0000
    43 C229    10.8548  15.3831  16.0402   C.ar      1 RES1   0.0000
    44 H206    10.2482  14.7864  16.4388   H         1 RES1   0.0000
    45 C230    10.3932  16.3120  15.1107   C.ar      1 RES1   0.0000
    46 C231    11.3244  17.1458  14.4848   C.ar      1 RES1   0.0000
    47 H207    11.0224  17.7447  13.8263   H         1 RES1   0.0000
    48 C232    12.6845  17.1250  14.7974   C.ar      1 RES1   0.0000
    49 C233    15.7272  12.8642  19.2445   C.3       1 RES1   0.0000
    50 C234     8.8995  16.4882  14.7813   C.3       1 RES1   0.0000
    51 C235     8.0395  15.3955  15.4029   C.3       1 RES1   0.0000
    52 H208     7.1109  15.5340  15.1560   H         1 RES1   0.0000
    53 H209     8.1245  15.4252  16.3684   H         1 RES1   0.0000
    54 H210     8.3328  14.5289  15.0792   H         1 RES1   0.0000
    55 C236     8.6899  16.4658  13.2828   C.3       1 RES1   0.0000
    56 H211     7.7554  16.6360  13.0843   H         1 RES1   0.0000
    57 H212     8.9411  15.5964  12.9341   H         1 RES1   0.0000
    58 H213     9.2379  17.1510  12.8692   H         1 RES1   0.0000
    59 C237     8.4498  17.8275  15.3546   C.3       1 RES1   0.0000
    60 H214     7.4994  17.9434  15.1990   H         1 RES1   0.0000
    61 H215     8.9380  18.5451  14.9208   H         1 RES1   0.0000
    62 H216     8.6263  17.8470  16.3081   H         1 RES1   0.0000
    63 C238    17.2294  15.2053  12.8622   C.ar      1 RES1   0.0000
    64 H217    17.5278  15.8277  12.2245   H         1 RES1   0.0000
    65 C239    18.1259  14.4455  13.5357   C.ar      1 RES1   0.0000
    66 H218    19.0467  14.5221  13.3585   H         1 RES1   0.0000
    67 C240    17.6692  13.5646  14.4758   C.ar      1 RES1   0.0000
    68 H219    18.2898  13.0532  14.9627   H         1 RES1   0.0000
    69 C241    16.3142  13.4036  14.7322   C.ar      1 RES1   0.0000
    70 H220    16.0225  12.7880  15.3795   H         1 RES1   0.0000
    71 C242    15.3869  14.1732  14.0104   C.ar      1 RES1   0.0000
    72 H221    14.4615  14.0719  14.1468   H         1 RES1   0.0000
    73 C243    15.8673  15.0673  13.1104   C.ar      1 RES1   0.0000
    74 C244    14.5531  15.3112  11.0516   C.ar      1 RES1   0.0000
    75 C245    14.8602  14.1922  10.3145   C.ar      1 RES1   0.0000
    76 H222    15.4570  13.5495  10.6504   H         1 RES1   0.0000
    77 C246    13.4590  14.9855   8.7061   C.ar      1 RES1   0.0000
    78 C247    13.6522  16.2324  10.5175   C.ar      1 RES1   0.0000
    79 C248    14.3541  17.0000  12.5261   C.3       1 RES1   0.0000
    80 C249    12.7130  18.4107  11.4867   C.ar      1 RES1   0.0000
    81 C250    11.8133  18.7210  10.4822   C.ar      1 RES1   0.0000
    82 H223    11.7422  18.1881   9.7110   H         1 RES1   0.0000
    83 C251    11.0182  19.8452  10.6526   C.ar      1 RES1   0.0000
    84 H224    10.4071  20.0806   9.9789   H         1 RES1   0.0000
    85 C252    11.1058  20.6307  11.7922   C.ar      1 RES1   0.0000
    86 C253    12.0482  20.2817  12.7696   C.ar      1 RES1   0.0000
    87 H225    12.1325  20.8245  13.5324   H         1 RES1   0.0000
    88 C254    12.8699  19.1516  12.6494   C.ar      1 RES1   0.0000
    89 C255    12.8383  14.7929   7.3388   C.3       1 RES1   0.0000
    90 C256    10.1622  21.8393  11.9508   C.3       1 RES1   0.0000
    91 C257    10.3250  22.7869  10.7374   C.3       1 RES1   0.0000
    92 H226     9.8266  23.6032  10.8957   H         1 RES1   0.0000
    93 H227     9.9869  22.3505   9.9396   H         1 RES1   0.0000
    94 H228    11.2639  22.9987  10.6165   H         1 RES1   0.0000
    95 C258     8.7260  21.3315  11.9858   C.3       1 RES1   0.0000
    96 H229     8.1204  22.0820  12.1005   H         1 RES1   0.0000
    97 H230     8.6180  20.7142  12.7255   H         1 RES1   0.0000
    98 H231     8.5222  20.8780  11.1529   H         1 RES1   0.0000
    99 C259    10.4421  22.6320  13.2168   C.3       1 RES1   0.0000
   100 H232     9.8783  23.4213  13.2350   H         1 RES1   0.0000
   101 H233    11.3739  22.8995  13.2320   H         1 RES1   0.0000
   102 H234    10.2510  22.0807  13.9920   H         1 RES1   0.0000
   103 C260    16.2664  18.6577  10.7147   C.ar      1 RES1   0.0000
   104 H235    15.3694  18.9376  10.7107   H         1 RES1   0.0000
   105 C261    16.7624  17.8423   9.6988   C.ar      1 RES1   0.0000
   106 H236    16.1901  17.5471   9.0135   H         1 RES1   0.0000
   107 C262    18.0884  17.4708   9.6980   C.ar      1 RES1   0.0000
   108 H237    18.4191  16.9200   9.0112   H         1 RES1   0.0000
   109 C263    18.9294  17.8981  10.6935   C.ar      1 RES1   0.0000
   110 H238    19.8372  17.6516  10.6759   H         1 RES1   0.0000
   111 C264    18.4525  18.6897  11.7243   C.ar      1 RES1   0.0000
   112 H239    19.0233  18.9821  12.4112   H         1 RES1   0.0000
   113 C265    17.1150  19.0427  11.7199   C.ar      1 RES1   0.0000
   114 C266    17.2081  21.2051  12.9219   C.ar      1 RES1   0.0000
   115 C267    18.2378  21.8953  12.3376   C.ar      1 RES1   0.0000
   116 H240    18.7553  21.4988  11.6606   H         1 RES1   0.0000
   117 C268    17.7184  23.6431  13.7022   C.ar      1 RES1   0.0000
   118 C269    16.4742  21.8263  13.9252   C.ar      1 RES1   0.0000
   119 C270    15.6018  19.7544  13.5977   C.3       1 RES1   0.0000
   120 C271    14.5078  21.0003  15.3271   C.ar      1 RES1   0.0000
   121 C272    14.3349  22.1160  16.1376   C.ar      1 RES1   0.0000
   122 H241    14.9040  22.8607  16.0662   H         1 RES1   0.0000
   123 C273    13.2935  22.0950  17.0572   C.ar      1 RES1   0.0000
   124 H242    13.1660  22.8312  17.6276   H         1 RES1   0.0000
   125 C274    12.4340  21.0000  17.1483   C.ar      1 RES1   0.0000
   126 C275    12.6953  19.8865  16.3426   C.ar      1 RES1   0.0000
   127 H243    12.1494  19.1267  16.4339   H         1 RES1   0.0000
   128 C276    13.7300  19.8556  15.4103   C.ar      1 RES1   0.0000
   129 C277    18.1188  25.0058  14.2189   C.3       1 RES1   0.0000
   130 C278    11.1640  21.0433  18.0107   C.3       1 RES1   0.0000
   131 C279    11.2233  22.1332  19.0619   C.3       1 RES1   0.0000
   132 H244    10.4124  22.1142  19.5936   H         1 RES1   0.0000
   133 H245    11.3047  22.9973  18.6277   H         1 RES1   0.0000
   134 H246    11.9907  21.9873  19.6370   H         1 RES1   0.0000
   135 C280    10.8725  19.7011  18.6621   C.3       1 RES1   0.0000
   136 H247    10.0884  19.7811  19.2284   H         1 RES1   0.0000
   137 H248    11.6328  19.4303  19.1994   H         1 RES1   0.0000
   138 H249    10.7081  19.0373  17.9748   H         1 RES1   0.0000
   139 C281     9.9931  21.3606  17.0529   C.3       1 RES1   0.0000
   140 H250     9.1712  21.4394  17.5625   H         1 RES1   0.0000
   141 H251     9.9036  20.6464  16.4033   H         1 RES1   0.0000
   142 H252    10.1690  22.1965  16.5928   H         1 RES1   0.0000
@<TRIPOS>BOND
     1     1    39    1
     2     2    49    1
     3     3    49    1
     4     4    49    1
     5     5    89    1
     6     6    89    1
     7     7    89    1
     8     8   129    1
     9     9   129    1
    10    10   129    1
    11    11    33    1
    12    12    35   ar
    13    13    37   ar
    14    14    38    1
    15    15    73    1
    16    16    75   ar
    17    17    77   ar
    18    18    78    1
    19    19   113    1
    20    20   115   ar
    21    21   117   ar
    22    22   118    1
    23    23    24    1
    24    25    23   ar
    25    26    25    1
    26    27    25   ar
    27    28    27    1
    28    29    27   ar
    29    30    29    1
    30    31    29   ar
    31    32    31    1
    32    33    23   ar
    33    34    11    1
    34    35    34   ar
    35    36    35    1
    36    37    12   ar
    37    38    13   ar
    38    39    11    1
    39    40    14    1
    40    41    40   ar
    41    42    41    1
    42    43    41   ar
    43    44    43    1
    44    45    43   ar
    45    46    45   ar
    46    47    46    1
    47    48     1    1
    48    49    37    1
    49    50    45    1
    50    51    50    1
    51    52    51    1
    52    53    51    1
    53    54    51    1
    54    55    50    1
    55    56    55    1
    56    57    55    1
    57    58    55    1
    58    59    50    1
    59    60    59    1
    60    61    59    1
    61    62    59    1
    62    63    64    1
    63    65    63   ar
    64    66    65    1
    65    67    65   ar
    66    68    67    1
    67    69    67   ar
    68    70    69    1
    69    71    69   ar
    70    72    71    1
    71    73    63   ar
    72    74    15    1
    73    75    74   ar
    74    76    75    1
    75    77    16   ar
    76    78    17   ar
    77    79     1    1
    78    80    18    1
    79    81    80   ar
    80    82    81    1
    81    83    81   ar
    82    84    83    1
    83    85    83   ar
    84    86    85   ar
    85    87    86    1
    86    88     1    1
    87    89    77    1
    88    90    85    1
    89    91    90    1
    90    92    91    1
    91    93    91    1
    92    94    91    1
    93    95    90    1
    94    96    95    1
    95    97    95    1
    96    98    95    1
    97    99    90    1
    98   100    99    1
    99   101    99    1
   100   102    99    1
   101   103   104    1
   102   105   103   ar
   103   106   105    1
   104   107   105   ar
   105   108   107    1
   106   109   107   ar
   107   110   109    1
   108   111   109   ar
   109   112   111    1
   110   113   103   ar
   111   114    19    1
   112   115   114   ar
   113   116   115    1
   114   117    20   ar
   115   118    21   ar
   116   119     1    1
   117   120    22    1
   118   121   120   ar
   119   122   121    1
   120   123   121   ar
   121   124   123    1
   122   125   123   ar
   123   126   125   ar
   124   127   126    1
   125   128     1    1
   126   129   117    1
   127   130   125    1
   128   131   130    1
   129   132   131    1
   130   133   131    1
   131   134   131    1
   132   135   130    1
   133   136   135    1
   134   137   135    1
   135   138   135    1
   136   139   130    1
   137   140   139    1
   138   141   139    1
   139   142   139    1
   140    14    39    1
   141    15    79    1
   142    18    79    1
   143    19   119    1
   144    22   119    1
   145    31    33   ar
   146    34    38   ar
   147    40    48   ar
   148    46    48   ar
   149    71    73   ar
   150    74    78   ar
   151    80    88   ar
   152    86    88   ar
   153   111   113   ar
   154   114   118   ar
   155   120   128   ar
   156   126   128   ar
@<TRIPOS>SUBSTRUCTURE
     1 RES1        1 GROUP             0 ****  ****    0  
