@<TRIPOS>MOLECULE
01
    90   101     1     0     0
SMALL
NO_CHARGES
****
Generated from the CSD

@<TRIPOS>ATOM
     1 Ir1      0.3039   0.6921   7.3321   Ir        1 RES1   0.0000
     2 F1       4.2639  -2.6150   3.2929   F         1 RES1   0.0000
     3 F2       2.4728  -2.0486   2.3086   F         1 RES1   0.0000
     4 F3       3.9353  -0.5776   2.7700   F         1 RES1   0.0000
     5 F4       0.1633   7.3153   6.3531   F         1 RES1   0.0000
     6 F5      -1.1410   6.8405   4.7306   F         1 RES1   0.0000
     7 F6       0.9648   6.9361   4.4338   F         1 RES1   0.0000
     8 N1       0.4625  -1.2185   8.3725   N.ar      1 RES1   0.0000
     9 N2       1.4873  -0.4835   6.0540   N.2       1 RES1   0.0000
    10 N3       1.9331  -0.3557   4.7888   N.2       1 RES1   0.0000
    11 N4       3.0211   1.3091   9.0130   N.pl3     1 RES1   0.0000
    12 N5       2.2689   2.8043   7.6784   N.pl3     1 RES1   0.0000
    13 N6      -1.6489   1.8138   5.4953   N.pl3     1 RES1   0.0000
    14 N7      -2.1096  -0.2844   5.4392   N.pl3     1 RES1   0.0000
    15 C1      -0.7926   1.5043   8.8889   C.ar      1 RES1   0.0000
    16 C2      -0.9905   2.8795   9.1233   C.ar      1 RES1   0.0000
    17 H1      -0.6785   3.4985   8.4738   H         1 RES1   0.0000
    18 C3      -1.6239   3.3765  10.2660   C.ar      1 RES1   0.0000
    19 H2      -1.7539   4.3134  10.3549   H         1 RES1   0.0000
    20 C4      -2.0654   2.5348  11.2693   C.ar      1 RES1   0.0000
    21 H3      -2.4678   2.8733  12.0605   H         1 RES1   0.0000
    22 C5      -1.8935   1.1677  11.0677   C.ar      1 RES1   0.0000
    23 C6      -1.3133   0.6698   9.8888   C.ar      1 RES1   0.0000
    24 C7      -1.4319  -0.8523   9.8771   C.3       1 RES1   0.0000
    25 C8      -2.0265  -1.1512  11.2488   C.ar      1 RES1   0.0000
    26 C9      -2.4552  -2.3612  11.7708   C.ar      1 RES1   0.0000
    27 H4      -2.2992  -3.1731  11.3022   H         1 RES1   0.0000
    28 C10     -3.1230  -2.3660  13.0037   C.ar      1 RES1   0.0000
    29 H5      -3.4135  -3.1875  13.3813   H         1 RES1   0.0000
    30 C11     -3.3625  -1.1769  13.6735   C.ar      1 RES1   0.0000
    31 H6      -3.8025  -1.1964  14.5149   H         1 RES1   0.0000
    32 C12     -2.9707   0.0400  13.1399   C.ar      1 RES1   0.0000
    33 H7      -3.1490   0.8520  13.6003   H         1 RES1   0.0000
    34 C13     -2.3073   0.0475  11.9079   C.ar      1 RES1   0.0000
    35 C14     -2.4938  -1.2870   8.8279   C.3       1 RES1   0.0000
    36 H8      -2.5330  -2.2655   8.7890   H         1 RES1   0.0000
    37 H9      -2.2464  -0.9348   7.9474   H         1 RES1   0.0000
    38 H10     -3.3712  -0.9349   9.0858   H         1 RES1   0.0000
    39 C15     -0.1323  -1.5647   9.5438   C.ar      1 RES1   0.0000
    40 C16      0.4008  -2.5654  10.3375   C.ar      1 RES1   0.0000
    41 H11     -0.0089  -2.7596  11.1723   H         1 RES1   0.0000
    42 C17      1.5252  -3.2990   9.9460   C.ar      1 RES1   0.0000
    43 C18      2.0384  -3.0218   8.6818   C.ar      1 RES1   0.0000
    44 H12      2.7595  -3.5348   8.3362   H         1 RES1   0.0000
    45 C19      1.4885  -1.9871   7.9252   C.ar      1 RES1   0.0000
    46 C20      1.9675  -1.6306   6.6038   C.2       1 RES1   0.0000
    47 C21      2.7704  -2.2812   5.6709   C.2       1 RES1   0.0000
    48 H13      3.2472  -3.0973   5.7669   H         1 RES1   0.0000
    49 C22      2.7031  -1.4493   4.5727   C.2       1 RES1   0.0000
    50 C23      2.1202  -4.3249  10.9051   C.3       1 RES1   0.0000
    51 C24      3.3749  -4.9780  10.3391   C.3       1 RES1   0.0000
    52 H14      3.7409  -5.6067  10.9959   H         1 RES1   0.0000
    53 H15      4.0416  -4.2880  10.1405   H         1 RES1   0.0000
    54 H16      3.1492  -5.4605   9.5161   H         1 RES1   0.0000
    55 C25      1.0797  -5.4183  11.1920   C.3       1 RES1   0.0000
    56 H17      1.4702  -6.0938  11.7858   H         1 RES1   0.0000
    57 H18      0.8089  -5.8415  10.3506   H         1 RES1   0.0000
    58 H19      0.2957  -5.0190  11.6239   H         1 RES1   0.0000
    59 C26      2.4670  -3.6237  12.2207   C.3       1 RES1   0.0000
    60 H20      2.8403  -4.2763  12.8501   H         1 RES1   0.0000
    61 H21      1.6561  -3.2284  12.6040   H         1 RES1   0.0000
    62 H22      3.1260  -2.9189  12.0520   H         1 RES1   0.0000
    63 C27      3.3398  -1.6615   3.2454   C.3       1 RES1   0.0000
    64 C28      1.9985   1.5444   8.1640   C.3       1 RES1   0.0000
    65 C29      3.1632   0.1435   9.8731   C.3       1 RES1   0.0000
    66 H23      3.6829   0.3850  10.6681   H         1 RES1   0.0000
    67 H24      3.6264  -0.5689   9.3843   H         1 RES1   0.0000
    68 H25      2.2762  -0.1716  10.1460   H         1 RES1   0.0000
    69 C30      3.9161   2.3807   9.0366   C.2       1 RES1   0.0000
    70 H26      4.7156   2.4342   9.5470   H         1 RES1   0.0000
    71 C31      3.4383   3.3242   8.2033   C.2       1 RES1   0.0000
    72 H27      3.8245   4.1715   8.0149   H         1 RES1   0.0000
    73 C32      0.3264   2.4573   6.4931   C.ar      1 RES1   0.0000
    74 C33      1.3238   3.3779   6.7980   C.ar      1 RES1   0.0000
    75 C34      1.2692   4.6902   6.3786   C.ar      1 RES1   0.0000
    76 H28      1.9657   5.3034   6.5823   H         1 RES1   0.0000
    77 C35      0.1437   5.0838   5.6386   C.ar      1 RES1   0.0000
    78 C36     -0.8800   4.1998   5.2974   C.ar      1 RES1   0.0000
    79 H29     -1.6355   4.4866   4.7979   H         1 RES1   0.0000
    80 C37     -0.7488   2.8842   5.7184   C.ar      1 RES1   0.0000
    81 C38     -2.6748   1.6709   4.5766   C.2       1 RES1   0.0000
    82 H30     -3.0888   2.3591   4.0690   H         1 RES1   0.0000
    83 C39     -2.9642   0.3614   4.5500   C.2       1 RES1   0.0000
    84 H31     -3.6341  -0.0524   4.0184   H         1 RES1   0.0000
    85 C40     -1.9540  -1.7226   5.5126   C.3       1 RES1   0.0000
    86 H32     -1.2141  -1.9406   6.1170   H         1 RES1   0.0000
    87 H33     -1.7612  -2.0763   4.6193   H         1 RES1   0.0000
    88 H34     -2.7815  -2.1238   5.8513   H         1 RES1   0.0000
    89 C41     -1.2906   0.6049   6.0501   C.3       1 RES1   0.0000
    90 C42      0.0264   6.5209   5.2865   C.3       1 RES1   0.0000
@<TRIPOS>BOND
     1     1     8    1
     2     2    63    1
     3     3    63    1
     4     4    63    1
     5     5    90    1
     6     6    90    1
     7     7    90    1
     8     8    39   ar
     9     9     1    1
    10    10     9    1
    11    11    64    1
    12    12    64    1
    13    13    80    1
    14    14    83    1
    15    15     1    1
    16    16    15   ar
    17    17    16    1
    18    18    16   ar
    19    19    18    1
    20    20    18   ar
    21    21    20    1
    22    22    20   ar
    23    23    15   ar
    24    24    23    1
    25    25    24    1
    26    26    25   ar
    27    27    26    1
    28    28    26   ar
    29    29    28    1
    30    30    28   ar
    31    31    30    1
    32    32    30   ar
    33    33    32    1
    34    34    22    1
    35    35    24    1
    36    36    35    1
    37    37    35    1
    38    38    35    1
    39    39    24    1
    40    40    39   ar
    41    41    40    1
    42    42    40   ar
    43    43    42   ar
    44    44    43    1
    45    45     8   ar
    46    46     9    1
    47    47    46    2
    48    48    47    1
    49    49    10    2
    50    50    42    1
    51    51    50    1
    52    52    51    1
    53    53    51    1
    54    54    51    1
    55    55    50    1
    56    56    55    1
    57    57    55    1
    58    58    55    1
    59    59    50    1
    60    60    59    1
    61    61    59    1
    62    62    59    1
    63    63    49    1
    64    64     1    1
    65    65    11    1
    66    66    65    1
    67    67    65    1
    68    68    65    1
    69    69    11    1
    70    70    69    1
    71    71    12    1
    72    72    71    1
    73    73     1    1
    74    74    12    1
    75    75    74   ar
    76    76    75    1
    77    77    75   ar
    78    78    77   ar
    79    79    78    1
    80    80    73   ar
    81    81    13    1
    82    82    81    1
    83    83    81    2
    84    84    83    1
    85    85    14    1
    86    86    85    1
    87    87    85    1
    88    88    85    1
    89    89     1    1
    90    90    77    1
    91    13    89    1
    92    14    89    1
    93    22    23   ar
    94    25    34   ar
    95    32    34   ar
    96    43    45   ar
    97    45    46    1
    98    47    49    1
    99    69    71    2
   100    73    74   ar
   101    78    80   ar
@<TRIPOS>SUBSTRUCTURE
     1 RES1        1 GROUP             0 ****  ****    0  
