@<TRIPOS>MOLECULE
02
    82    91     1     0     0
SMALL
NO_CHARGES
****
Generated from the CSD

@<TRIPOS>ATOM
     1 Ir1      3.0464   1.8489  11.1765   Ir        1 RES1   0.0000
     2 N1       4.1814   0.2434  11.8182   N.ar      1 RES1   0.0000
     3 N2       1.5842   0.3694  11.6102   N.2       1 RES1   0.0000
     4 N3       1.2074  -1.7718  12.2554   N.2       1 RES1   0.0000
     5 N4       2.2564   2.4676   8.4390   N.pl3     1 RES1   0.0000
     6 N5       3.2056   0.5452   8.2689   N.pl3     1 RES1   0.0000
     7 N6       2.0581   4.1140  12.7138   N.pl3     1 RES1   0.0000
     8 N7       3.0639   2.9468  14.2091   N.pl3     1 RES1   0.0000
     9 C1       4.9050   2.6149  10.9635   C.ar      1 RES1   0.0000
    10 C2       5.2920   3.8844  10.5324   C.ar      1 RES1   0.0000
    11 H1       4.6259   4.5042  10.2595   H         1 RES1   0.0000
    12 C3       6.6144   4.2612  10.4959   C.ar      1 RES1   0.0000
    13 H2       6.8489   5.1361  10.2103   H         1 RES1   0.0000
    14 C4       7.6086   3.3675  10.8724   C.ar      1 RES1   0.0000
    15 H3       8.5194   3.6389  10.8509   H         1 RES1   0.0000
    16 C5       7.2894   2.1088  11.2732   C.ar      1 RES1   0.0000
    17 H4       7.9745   1.4972  11.5157   H         1 RES1   0.0000
    18 C6       5.9433   1.7153  11.3294   C.ar      1 RES1   0.0000
    19 C7       5.5296   0.3742  11.7468   C.ar      1 RES1   0.0000
    20 C8       6.3010  -0.7420  12.0656   C.ar      1 RES1   0.0000
    21 H5       7.2480  -0.6862  12.0151   H         1 RES1   0.0000
    22 C9       5.7086  -1.9273  12.4543   C.ar      1 RES1   0.0000
    23 H6       6.2475  -2.6744  12.6861   H         1 RES1   0.0000
    24 C10      4.3171  -2.0258  12.5074   C.ar      1 RES1   0.0000
    25 H7       3.8912  -2.8342  12.7662   H         1 RES1   0.0000
    26 C11      3.5805  -0.9095  12.1689   C.ar      1 RES1   0.0000
    27 C12      2.1204  -0.8069  12.0580   C.2       1 RES1   0.0000
    28 C13      0.0224  -1.1748  11.8895   C.2       1 RES1   0.0000
    29 H8      -0.8292  -1.5954  11.8987   H         1 RES1   0.0000
    30 C14      0.2648   0.1335  11.5070   C.2       1 RES1   0.0000
    31 H9      -0.3908   0.7588  11.2193   H         1 RES1   0.0000
    32 C15      2.8942   1.4884   9.1722   C.3       1 RES1   0.0000
    33 C16      3.8717  -0.7202   8.5892   C.3       1 RES1   0.0000
    34 H10      4.0159  -0.7464   9.5780   H         1 RES1   0.0000
    35 C17      2.9529  -1.8902   8.2204   C.3       1 RES1   0.0000
    36 H11      2.1228  -1.8297   8.7383   H         1 RES1   0.0000
    37 H12      3.4034  -2.7366   8.4245   H         1 RES1   0.0000
    38 H13      2.7442  -1.8539   7.2638   H         1 RES1   0.0000
    39 C18      5.2155  -0.8459   7.9274   C.3       1 RES1   0.0000
    40 H14      5.1145  -0.7361   6.9584   H         1 RES1   0.0000
    41 H15      5.5922  -1.7306   8.1176   H         1 RES1   0.0000
    42 H16      5.8165  -0.1538   8.2734   H         1 RES1   0.0000
    43 C19      2.7636   0.9144   6.9877   C.2       1 RES1   0.0000
    44 H17      2.8657   0.4129   6.1880   H         1 RES1   0.0000
    45 C20      2.1643   2.1219   7.1106   C.2       1 RES1   0.0000
    46 H18      1.7591   2.6293   6.4168   H         1 RES1   0.0000
    47 C21      2.0352   3.4263  10.5202   C.ar      1 RES1   0.0000
    48 C22      1.7669   3.5938   9.1874   C.ar      1 RES1   0.0000
    49 C23      1.1509   4.7428   8.6758   C.ar      1 RES1   0.0000
    50 H19      0.9843   4.8365   7.7451   H         1 RES1   0.0000
    51 C24      0.7865   5.7553   9.5836   C.ar      1 RES1   0.0000
    52 C25      0.1053   7.0524   9.1130   C.3       1 RES1   0.0000
    53 C26      0.0589   7.1688   7.5995   C.3       1 RES1   0.0000
    54 H20      0.9714   7.1405   7.2424   H         1 RES1   0.0000
    55 H21     -0.3627   8.0176   7.3509   H         1 RES1   0.0000
    56 H22     -0.4600   6.4248   7.2305   H         1 RES1   0.0000
    57 C27     -1.3272   7.0851   9.6656   C.3       1 RES1   0.0000
    58 H23     -1.7388   7.9495   9.4561   H         1 RES1   0.0000
    59 H24     -1.3051   6.9618  10.6381   H         1 RES1   0.0000
    60 H25     -1.8523   6.3656   9.2575   H         1 RES1   0.0000
    61 C28      0.8772   8.2708   9.6686   C.3       1 RES1   0.0000
    62 H26      1.8124   8.2262   9.3775   H         1 RES1   0.0000
    63 H27      0.8395   8.2633  10.6476   H         1 RES1   0.0000
    64 H28      0.4703   9.0967   9.3322   H         1 RES1   0.0000
    65 C29      1.0371   5.5868  10.9498   C.ar      1 RES1   0.0000
    66 H29      0.7799   6.2570  11.5715   H         1 RES1   0.0000
    67 C30      1.6606   4.4397  11.3840   C.ar      1 RES1   0.0000
    68 C31      2.7556   2.9289  12.8945   C.3       1 RES1   0.0000
    69 C32      1.9496   4.8209  13.8995   C.2       1 RES1   0.0000
    70 H30      1.5191   5.6580  14.0235   H         1 RES1   0.0000
    71 C33      2.5728   4.0871  14.8407   C.2       1 RES1   0.0000
    72 H31      2.6622   4.3068  15.7601   H         1 RES1   0.0000
    73 C34      3.8155   1.8791  14.8938   C.3       1 RES1   0.0000
    74 H32      4.2303   1.2893  14.2015   H         1 RES1   0.0000
    75 C35      2.9051   1.0581  15.7257   C.3       1 RES1   0.0000
    76 H33      2.4854   1.6235  16.4068   H         1 RES1   0.0000
    77 H34      3.4151   0.3443  16.1614   H         1 RES1   0.0000
    78 H35      2.2110   0.6629  15.1566   H         1 RES1   0.0000
    79 C36      4.9183   2.4945  15.7211   C.3       1 RES1   0.0000
    80 H36      5.5339   2.9817  15.1350   H         1 RES1   0.0000
    81 H37      5.4069   1.7873  16.1925   H         1 RES1   0.0000
    82 H38      4.5304   3.1138  16.3746   H         1 RES1   0.0000
@<TRIPOS>BOND
     1     1     2    1
     2     2    19   ar
     3     3     1    1
     4     4    27    2
     5     5    32    1
     6     6    32    1
     7     7    67    1
     8     8    68    1
     9     9     1    1
    10    10     9   ar
    11    11    10    1
    12    12    10   ar
    13    13    12    1
    14    14    12   ar
    15    15    14    1
    16    16    14   ar
    17    17    16    1
    18    18     9   ar
    19    19    18    1
    20    20    19   ar
    21    21    20    1
    22    22    20   ar
    23    23    22    1
    24    24    22   ar
    25    25    24    1
    26    26     2   ar
    27    27     3    1
    28    28     4    1
    29    29    28    1
    30    30     3    1
    31    31    30    1
    32    32     1    1
    33    33     6    1
    34    34    33    1
    35    35    33    1
    36    36    35    1
    37    37    35    1
    38    38    35    1
    39    39    33    1
    40    40    39    1
    41    41    39    1
    42    42    39    1
    43    43     6    1
    44    44    43    1
    45    45     5    1
    46    46    45    1
    47    47     1    1
    48    48     5    1
    49    49    48   ar
    50    50    49    1
    51    51    49   ar
    52    52    51    1
    53    53    52    1
    54    54    53    1
    55    55    53    1
    56    56    53    1
    57    57    52    1
    58    58    57    1
    59    59    57    1
    60    60    57    1
    61    61    52    1
    62    62    61    1
    63    63    61    1
    64    64    61    1
    65    65    51   ar
    66    66    65    1
    67    67    47   ar
    68    68     1    1
    69    69     7    1
    70    70    69    1
    71    71     8    1
    72    72    71    1
    73    73     8    1
    74    74    73    1
    75    75    73    1
    76    76    75    1
    77    77    75    1
    78    78    75    1
    79    79    73    1
    80    80    79    1
    81    81    79    1
    82    82    79    1
    83     7    68    1
    84    16    18   ar
    85    24    26   ar
    86    26    27    1
    87    28    30    2
    88    43    45    2
    89    47    48   ar
    90    65    67   ar
    91    69    71    2
@<TRIPOS>SUBSTRUCTURE
     1 RES1        1 GROUP             0 ****  ****    0  
