@<TRIPOS>MOLECULE
01
    94   103     1     0     0
SMALL
NO_CHARGES
****
Generated from the CSD

@<TRIPOS>ATOM
     1 Ir1      4.0787   2.7379  10.4028   Ir        1 RES1   0.0000
     2 N1       3.4943   2.5566   7.2337   N.pl3     1 RES1   0.0000
     3 N2       1.9864   1.7664   8.5988   N.pl3     1 RES1   0.0000
     4 N3       5.5352   0.7416  11.9750   N.pl3     1 RES1   0.0000
     5 N4       3.6703   4.9107  12.3411   N.pl3     1 RES1   0.0000
     6 N5       6.8471   3.9864   9.4880   N.1       1 RES1   0.0000
     7 N6       2.5514   5.5717  10.6334   N.pl3     1 RES1   0.0000
     8 N7       5.2252  -0.2692  10.0999   N.pl3     1 RES1   0.0000
     9 C1       1.5800   1.5203   7.3932   C.ar      1 RES1   0.0000
    10 C2       2.5031   2.0109   6.4771   C.ar      1 RES1   0.0000
    11 C3       2.2798   1.8545   5.1140   C.ar      1 RES1   0.0000
    12 H1       2.9108   2.1898   4.4880   H         1 RES1   0.0000
    13 C4       1.1328   1.2092   4.6674   C.ar      1 RES1   0.0000
    14 H2       0.9802   1.1024   3.7357   H         1 RES1   0.0000
    15 C5       0.2096   0.7186   5.5835   C.ar      1 RES1   0.0000
    16 H3      -0.5743   0.2774   5.2779   H         1 RES1   0.0000
    17 N8       0.4330   0.8750   6.9465   N.ar      1 RES1   0.0000
    18 C6       3.2068   2.4134   8.5596   C.3       1 RES1   0.0000
    19 C7       5.8507   3.5394   9.7782   C.1       1 RES1   0.0000
    20 C8       5.4105   1.8002  12.8736   C.ar      1 RES1   0.0000
    21 C9       4.7141   2.8636  12.3116   C.ar      1 RES1   0.0000
    22 C10      4.4336   3.9913  13.0742   C.ar      1 RES1   0.0000
    23 C11      4.8495   4.0555  14.3988   C.ar      1 RES1   0.0000
    24 H4       4.6575   4.8261  14.9200   H         1 RES1   0.0000
    25 C12      5.5459   2.9920  14.9611   C.ar      1 RES1   0.0000
    26 H5       5.8302   3.0359  15.8664   H         1 RES1   0.0000
    27 C13      5.8268   1.8644  14.1985   C.ar      1 RES1   0.0000
    28 H6       6.3027   1.1374  14.5826   H         1 RES1   0.0000
    29 C14      4.6798   3.1772   6.6557   C.3       1 RES1   0.0000
    30 H7       5.1210   2.5219   6.0579   H         1 RES1   0.0000
    31 H8       5.3138   3.3928   7.3838   H         1 RES1   0.0000
    32 C15      2.2088   1.8849  10.9671   C.ar      1 RES1   0.0000
    33 C16      1.4424   1.5022   9.8724   C.ar      1 RES1   0.0000
    34 C17      0.1891   0.9334  10.0659   C.ar      1 RES1   0.0000
    35 H9      -0.3347   0.6722   9.3178   H         1 RES1   0.0000
    36 C18     -0.2979   0.7474  11.3544   C.ar      1 RES1   0.0000
    37 C19      0.4685   1.1293  12.4492   C.ar      1 RES1   0.0000
    38 C20      1.7218   1.6981  12.2556   C.ar      1 RES1   0.0000
    39 H10      2.2456   1.9598  13.0038   H         1 RES1   0.0000
    40 C21      5.0048   0.9046  10.7197   C.3       1 RES1   0.0000
    41 C22      6.0752  -0.5235  12.1058   C.2       1 RES1   0.0000
    42 H11      6.4982  -0.8822  12.8776   H         1 RES1   0.0000
    43 C23      3.3485   4.5626  11.0545   C.3       1 RES1   0.0000
    44 C24      4.8847  -0.5836   8.7139   C.3       1 RES1   0.0000
    45 H12      4.0352  -0.1355   8.4783   H         1 RES1   0.0000
    46 H13      4.7482  -1.5602   8.6270   H         1 RES1   0.0000
    47 C25      3.0746   6.1108  12.6942   C.2       1 RES1   0.0000
    48 H14      3.1405   6.5563  13.5316   H         1 RES1   0.0000
    49 C26      7.2261  -0.9351   7.8456   C.3       1 RES1   0.0000
    50 H15      7.0042  -1.8942   7.7373   H         1 RES1   0.0000
    51 H16      7.5911  -0.8138   8.7569   H         1 RES1   0.0000
    52 C27     -0.0334   0.9285  13.8553   C.3       1 RES1   0.0000
    53 H17     -0.8876   1.3944  13.9671   H         1 RES1   0.0000
    54 H18      0.6212   1.2889  14.4898   H         1 RES1   0.0000
    55 H19     -0.1580  -0.0288  14.0235   H         1 RES1   0.0000
    56 C28      5.8906  -1.1408  10.9446   C.2       1 RES1   0.0000
    57 H20      6.1647  -2.0245  10.7306   H         1 RES1   0.0000
    58 C29      2.3968   6.5117  11.6429   C.2       1 RES1   0.0000
    59 H21      1.8838   7.3104  11.5843   H         1 RES1   0.0000
    60 C30      3.2292   5.1766   6.0516   C.ar      1 RES1   0.0000
    61 H22      2.5689   4.8694   6.6608   H         1 RES1   0.0000
    62 C31      4.3961   4.4448   5.8633   C.ar      1 RES1   0.0000
    63 C32      5.3624   4.8934   4.9715   C.ar      1 RES1   0.0000
    64 H23      6.1599   4.3934   4.8430   H         1 RES1   0.0000
    65 C33      5.1624   6.0746   4.2654   C.ar      1 RES1   0.0000
    66 H24      5.8229   6.3818   3.6564   H         1 RES1   0.0000
    67 C34      3.9959   6.8072   4.4537   C.ar      1 RES1   0.0000
    68 H25      3.8589   7.6141   3.9720   H         1 RES1   0.0000
    69 C35      3.0292   6.3578   5.3455   C.ar      1 RES1   0.0000
    70 H26      2.2318   6.8579   5.4741   H         1 RES1   0.0000
    71 C36      5.9716  -0.1432   7.7253   C.3       1 RES1   0.0000
    72 H27      5.6235  -0.2291   6.8041   H         1 RES1   0.0000
    73 H28      6.1802   0.8124   7.8827   H         1 RES1   0.0000
    74 C37      1.7775   5.5725   9.4121   C.3       1 RES1   0.0000
    75 H29      2.1904   4.9486   8.7645   H         1 RES1   0.0000
    76 H30      1.7939   6.4793   9.0169   H         1 RES1   0.0000
    77 C38     -1.6644   0.0749  11.5252   C.3       1 RES1   0.0000
    78 H31     -2.3014   0.7200  11.8982   H         1 RES1   0.0000
    79 H32     -1.5793  -0.6887  12.1331   H         1 RES1   0.0000
    80 H33     -1.9870  -0.2355  10.6534   H         1 RES1   0.0000
    81 C39      0.3351   5.1585   9.6579   C.3       1 RES1   0.0000
    82 H34      0.3255   4.2842  10.1242   H         1 RES1   0.0000
    83 H35     -0.0941   5.8226  10.2542   H         1 RES1   0.0000
    84 C40     -0.4614   5.0474   8.3922   C.3       1 RES1   0.0000
    85 H36     -0.0601   4.3630   7.8012   H         1 RES1   0.0000
    86 H37     -0.4544   5.9143   7.9142   H         1 RES1   0.0000
    87 C41     -1.9051   4.6556   8.7400   C.3       1 RES1   0.0000
    88 H38     -2.4037   4.4839   7.9134   H         1 RES1   0.0000
    89 H39     -2.3321   5.3862   9.2331   H         1 RES1   0.0000
    90 H40     -1.8996   3.8466   9.2921   H         1 RES1   0.0000
    91 C42      8.3043  -0.5745   6.8414   C.3       1 RES1   0.0000
    92 H41      7.9462  -0.6556   5.9332   H         1 RES1   0.0000
    93 H42      9.0659  -1.1830   6.9477   H         1 RES1   0.0000
    94 H43      8.5993   0.3470   6.9960   H         1 RES1   0.0000
@<TRIPOS>BOND
     1     1    18    1
     2     2    10    1
     3     3     9    1
     4     4    20    1
     5     5    22    1
     6     6    19    3
     7     7    43    1
     8     8    40    1
     9     9    10   ar
    10    10    11   ar
    11    11    12    1
    12    13    11   ar
    13    14    13    1
    14    15    13   ar
    15    16    15    1
    16    17     9   ar
    17    18     2    1
    18    19     1    1
    19    20    21   ar
    20    21     1    1
    21    22    21   ar
    22    23    22   ar
    23    24    23    1
    24    25    23   ar
    25    26    25    1
    26    27    20   ar
    27    28    27    1
    28    29     2    1
    29    30    29    1
    30    31    29    1
    31    32     1    1
    32    33     3    1
    33    34    33   ar
    34    35    34    1
    35    36    34   ar
    36    37    36   ar
    37    38    32   ar
    38    39    38    1
    39    40     1    1
    40    41     4    1
    41    42    41    1
    42    43     1    1
    43    44     8    1
    44    45    44    1
    45    46    44    1
    46    47     5    1
    47    48    47    1
    48    49    50    1
    49    51    49    1
    50    52    37    1
    51    53    52    1
    52    54    52    1
    53    55    52    1
    54    56     8    1
    55    57    56    1
    56    58     7    1
    57    59    58    1
    58    60    61    1
    59    62    29    1
    60    63    62   ar
    61    64    63    1
    62    65    63   ar
    63    66    65    1
    64    67    65   ar
    65    68    67    1
    66    69    60   ar
    67    70    69    1
    68    71    44    1
    69    72    71    1
    70    73    71    1
    71    74     7    1
    72    75    74    1
    73    76    74    1
    74    77    36    1
    75    78    77    1
    76    79    77    1
    77    80    77    1
    78    81    74    1
    79    82    81    1
    80    83    81    1
    81    84    81    1
    82    85    84    1
    83    86    84    1
    84    87    84    1
    85    88    87    1
    86    89    87    1
    87    90    87    1
    88    91    49    1
    89    92    91    1
    90    93    91    1
    91    94    91    1
    92     3    18    1
    93     4    40    1
    94     5    43    1
    95    15    17   ar
    96    25    27   ar
    97    32    33   ar
    98    37    38   ar
    99    41    56    2
   100    47    58    2
   101    49    71    1
   102    60    62   ar
   103    67    69   ar
@<TRIPOS>SUBSTRUCTURE
     1 RES1        1 GROUP             0 ****  ****    0  
