@<TRIPOS>MOLECULE
01
    78    87     1     0     0
SMALL
NO_CHARGES
****
Generated from the CSD

@<TRIPOS>ATOM
     1 Ir1      1.7257   2.6389  19.2120   Ir        1 RES1   0.0000
     2 S1       2.6287   3.5275  14.8004   S.3       1 RES1   0.0000
     3 S2       1.1299   6.2117  16.3410   S.3       1 RES1   0.0000
     4 N1       1.1409   4.5723  18.3596   N.2       1 RES1   0.0000
     5 N2       0.4730   3.1873  22.0988   N.1       1 RES1   0.0000
     6 N3       4.2853   1.9572  20.3896   N.pl3     1 RES1   0.0000
     7 N4       0.3133   0.1114  19.0352   N.pl3     1 RES1   0.0000
     8 N5      -1.1348   1.5168  18.3104   N.pl3     1 RES1   0.0000
     9 C1       2.4298   2.4858  17.2677   C.2       1 RES1   0.0000
    10 C2       2.1637   3.5982  16.4979   C.2       1 RES1   0.0000
    11 C3       3.2573   1.9316  15.0665   C.ar      1 RES1   0.0000
    12 C4       3.8507   1.1431  14.0946   C.ar      1 RES1   0.0000
    13 H1       3.9621   1.4701  13.2084   H         1 RES1   0.0000
    14 C5       4.2758  -0.1216  14.4312   C.ar      1 RES1   0.0000
    15 H2       4.6894  -0.6716  13.7771   H         1 RES1   0.0000
    16 C6       4.1030  -0.6055  15.7368   C.ar      1 RES1   0.0000
    17 H3       4.3961  -1.4823  15.9545   H         1 RES1   0.0000
    18 C7       3.5096   0.1805  16.7145   C.ar      1 RES1   0.0000
    19 H4       3.3907  -0.1662  17.5917   H         1 RES1   0.0000
    20 C8       3.0836   1.4874  16.4144   C.ar      1 RES1   0.0000
    21 C9       1.5086   4.6990  17.1029   C.2       1 RES1   0.0000
    22 C10      0.4774   5.7320  18.8045   C.ar      1 RES1   0.0000
    23 C11     -0.0989   5.9227  20.0632   C.ar      1 RES1   0.0000
    24 H5      -0.0438   5.2541  20.7357   H         1 RES1   0.0000
    25 C12     -0.7519   7.1196  20.2974   C.ar      1 RES1   0.0000
    26 H6      -1.1696   7.2611  21.1393   H         1 RES1   0.0000
    27 C13     -0.8135   8.1283  19.3285   C.ar      1 RES1   0.0000
    28 H7      -1.2618   8.9426  19.5252   H         1 RES1   0.0000
    29 C14     -0.2336   7.9542  18.0932   C.ar      1 RES1   0.0000
    30 H8      -0.2543   8.6464  17.4447   H         1 RES1   0.0000
    31 C15      0.3850   6.7356  17.8210   C.ar      1 RES1   0.0000
    32 C16      0.9466   2.9838  21.0468   C.1       1 RES1   0.0000
    33 C17      2.3754   0.8499  19.7412   C.ar      1 RES1   0.0000
    34 C18      1.5730  -0.2522  19.5656   C.ar      1 RES1   0.0000
    35 C19      2.0360  -1.5450  19.8607   C.ar      1 RES1   0.0000
    36 H9       1.4815  -2.3071  19.7366   H         1 RES1   0.0000
    37 C20      3.3299  -1.6692  20.3384   C.ar      1 RES1   0.0000
    38 H10      3.6669  -2.5375  20.5272   H         1 RES1   0.0000
    39 C21      4.1554  -0.5658  20.5550   C.ar      1 RES1   0.0000
    40 H11      5.0382  -0.6701  20.8898   H         1 RES1   0.0000
    41 C22      3.6369   0.6963  20.2594   C.ar      1 RES1   0.0000
    42 C23      5.4868   2.2900  20.9941   C.2       1 RES1   0.0000
    43 H12      6.1443   1.7003  21.3439   H         1 RES1   0.0000
    44 C24      5.5145   3.6520  20.9765   C.2       1 RES1   0.0000
    45 H13      6.2121   4.1994  21.3166   H         1 RES1   0.0000
    46 N6       4.3574   4.0974  20.3747   N.pl3     1 RES1   0.0000
    47 C25      3.9457   5.5042  20.2711   C.3       1 RES1   0.0000
    48 H14      4.3459   6.0056  21.0248   H         1 RES1   0.0000
    49 H15      2.9620   5.5521  20.3693   H         1 RES1   0.0000
    50 C26      4.3341   6.1928  18.9743   C.3       1 RES1   0.0000
    51 H16      3.8826   5.7511  18.2117   H         1 RES1   0.0000
    52 H17      5.3123   6.1222  18.8371   H         1 RES1   0.0000
    53 C27      3.9279   7.6598  19.0329   C.3       1 RES1   0.0000
    54 H18      4.4255   8.1007  19.7655   H         1 RES1   0.0000
    55 H19      2.9633   7.7165  19.2450   H         1 RES1   0.0000
    56 C28      4.1923   8.4163  17.7302   C.3       1 RES1   0.0000
    57 H20      5.1470   8.3698  17.5132   H         1 RES1   0.0000
    58 H21      3.9278   9.3541  17.8384   H         1 RES1   0.0000
    59 H22      3.6722   8.0117  17.0055   H         1 RES1   0.0000
    60 C29      3.5663   3.0631  19.9874   C.3       1 RES1   0.0000
    61 C30     -0.8434  -0.6221  18.7548   C.2       1 RES1   0.0000
    62 H23     -0.9715  -1.5562  18.8685   H         1 RES1   0.0000
    63 C31     -1.7392   0.2701  18.2893   C.2       1 RES1   0.0000
    64 H24     -2.6242   0.0785  18.0019   H         1 RES1   0.0000
    65 C32     -1.7988   2.7610  17.8766   C.3       1 RES1   0.0000
    66 H25     -1.4040   3.5266  18.3656   H         1 RES1   0.0000
    67 H26     -2.7597   2.7146  18.1126   H         1 RES1   0.0000
    68 C33     -1.6638   2.9991  16.3925   C.3       1 RES1   0.0000
    69 H27     -2.0915   2.2517  15.9020   H         1 RES1   0.0000
    70 H28     -0.7040   3.0106  16.1494   H         1 RES1   0.0000
    71 C34     -2.3098   4.3214  15.9563   C.3       1 RES1   0.0000
    72 H29     -3.2754   4.3045  16.1763   H         1 RES1   0.0000
    73 H30     -1.8955   5.0700  16.4552   H         1 RES1   0.0000
    74 C35     -2.1319   4.5467  14.4605   C.3       1 RES1   0.0000
    75 H31     -1.1765   4.5812  14.2470   H         1 RES1   0.0000
    76 H32     -2.5552   5.3926  14.2052   H         1 RES1   0.0000
    77 H33     -2.5507   3.8100  13.9678   H         1 RES1   0.0000
    78 C36      0.1255   1.4490  18.7445   C.3       1 RES1   0.0000
@<TRIPOS>BOND
     1     1     4    1
     2     2    10    1
     3     3    21    1
     4     4    21    2
     5     5    32    3
     6     6    41    1
     7     7    34    1
     8     8    63    1
     9     9     1    1
    10    10     9    2
    11    11     2    1
    12    12    11   ar
    13    13    12    1
    14    14    12   ar
    15    15    14    1
    16    16    14   ar
    17    17    16    1
    18    18    16   ar
    19    19    18    1
    20    20     9    1
    21    21    10    1
    22    22     4    1
    23    23    22   ar
    24    24    23    1
    25    25    23   ar
    26    26    25    1
    27    27    25   ar
    28    28    27    1
    29    29    27   ar
    30    30    29    1
    31    31     3    1
    32    32     1    1
    33    33     1    1
    34    34    33   ar
    35    35    34   ar
    36    36    35    1
    37    37    35   ar
    38    38    37    1
    39    39    37   ar
    40    40    39    1
    41    41    33   ar
    42    42     6    1
    43    43    42    1
    44    44    42    2
    45    45    44    1
    46    46    44    1
    47    47    46    1
    48    48    47    1
    49    49    47    1
    50    50    47    1
    51    51    50    1
    52    52    50    1
    53    53    50    1
    54    54    53    1
    55    55    53    1
    56    56    53    1
    57    57    56    1
    58    58    56    1
    59    59    56    1
    60    60     1    1
    61    61     7    1
    62    62    61    1
    63    63    61    2
    64    64    63    1
    65    65     8    1
    66    66    65    1
    67    67    65    1
    68    68    65    1
    69    69    68    1
    70    70    68    1
    71    71    68    1
    72    72    71    1
    73    73    71    1
    74    74    71    1
    75    75    74    1
    76    76    74    1
    77    77    74    1
    78    78     1    1
    79     6    60    1
    80     7    78    1
    81     8    78    1
    82    11    20   ar
    83    18    20   ar
    84    22    31   ar
    85    29    31   ar
    86    39    41   ar
    87    46    60    1
@<TRIPOS>SUBSTRUCTURE
     1 RES1        1 GROUP             0 ****  ****    0  
