@<TRIPOS>MOLECULE
01
    68    75     1     0     0
SMALL
NO_CHARGES
****
Generated from the CSD

@<TRIPOS>ATOM
     1 Ir1      6.6719   8.1577   3.2015   Ir        1 RES1   0.0000
     2 Br1      5.6638   6.1037   1.9604   Br        1 RES1   0.0000
     3 S1       7.7415  12.4469   3.9605   S.3       1 RES1   0.0000
     4 N1       6.1136   9.5897   1.6627   N.ar      1 RES1   0.0000
     5 N2       5.1888   7.4836   5.6040   N.pl3     1 RES1   0.0000
     6 C1       7.2559   7.0286   4.7100   C.ar      1 RES1   0.0000
     7 N3       9.3940   7.6928   1.5732   N.pl3     1 RES1   0.0000
     8 C2       5.0412   8.2365   4.4565   C.3       1 RES1   0.0000
     9 N4       9.2315   6.8239   3.5183   N.pl3     1 RES1   0.0000
    10 N5       3.8447   8.8169   4.5791   N.pl3     1 RES1   0.0000
    11 C3      10.4703   6.4773   3.0486   C.2       1 RES1   0.0000
    12 H1      11.1226   5.9520   3.4983   H         1 RES1   0.0000
    13 C4       5.1551  10.3276  -0.4009   C.ar      1 RES1   0.0000
    14 H2       4.6949  10.1131  -1.2039   H         1 RES1   0.0000
    15 C5       2.8806  12.0872   2.8681   C.3       1 RES1   0.0000
    16 H3       1.9286  11.8537   2.7271   H         1 RES1   0.0000
    17 H4       3.3639  11.9057   2.0234   H         1 RES1   0.0000
    18 C6       9.2973  10.5415  -0.9547   C.3       1 RES1   0.0000
    19 H5       8.3153  10.6547  -1.0027   H         1 RES1   0.0000
    20 H6       9.5767   9.9873  -1.7270   H         1 RES1   0.0000
    21 C7       3.2353   8.4346   5.7666   C.2       1 RES1   0.0000
    22 H7       2.3830   8.7190   6.0754   H         1 RES1   0.0000
    23 C8       8.9699   5.6987   5.7941   C.ar      1 RES1   0.0000
    24 H8       9.8512   5.3462   5.8204   H         1 RES1   0.0000
    25 C9      10.5815   7.0212   1.8377   C.2       1 RES1   0.0000
    26 H9      11.3343   6.9607   1.2618   H         1 RES1   0.0000
    27 C10      4.0566   7.5990   6.3920   C.2       1 RES1   0.0000
    28 H10      3.8974   7.1630   7.2208   H         1 RES1   0.0000
    29 C11      9.6502   9.8209   0.3224   C.3       1 RES1   0.0000
    30 H11      9.2862  10.3239   1.0930   H         1 RES1   0.0000
    31 H12     10.6348   9.7854   0.4173   H         1 RES1   0.0000
    32 C12      3.4448  11.2055   3.9537   C.3       1 RES1   0.0000
    33 H13      2.9926  11.4073   4.8115   H         1 RES1   0.0000
    34 H14      4.4103  11.3947   4.0647   H         1 RES1   0.0000
    35 C13      6.4720  10.8737   1.9520   C.ar      1 RES1   0.0000
    36 C14      3.2495   9.7239   3.6079   C.3       1 RES1   0.0000
    37 H15      2.2795   9.5349   3.5463   H         1 RES1   0.0000
    38 H16      3.6479   9.5474   2.7195   H         1 RES1   0.0000
    39 C15      9.0919   8.4079   0.3334   C.3       1 RES1   0.0000
    40 H17      8.1100   8.4480   0.2146   H         1 RES1   0.0000
    41 H18      9.4699   7.9053  -0.4303   H         1 RES1   0.0000
    42 C16      7.3993   9.8726   3.9716   C.2       1 RES1   0.0000
    43 C17      7.1636  10.9852   3.2153   C.2       1 RES1   0.0000
    44 C18      6.1957  11.9104   1.0621   C.ar      1 RES1   0.0000
    45 H19      6.4618  12.7984   1.2687   H         1 RES1   0.0000
    46 C19      5.4628   9.3464   0.5125   C.ar      1 RES1   0.0000
    47 H20      5.2029   8.4528   0.3213   H         1 RES1   0.0000
    48 C20      8.5359   6.4756   4.7210   C.ar      1 RES1   0.0000
    49 C21      8.5483   7.5962   2.6050   C.3       1 RES1   0.0000
    50 C22      6.4039   6.8051   5.7790   C.ar      1 RES1   0.0000
    51 C23      8.3457  11.5432   5.2968   C.2       1 RES1   0.0000
    52 H21      8.8085  11.9293   6.0317   H         1 RES1   0.0000
    53 C24      8.0832  10.2103   5.1797   C.2       1 RES1   0.0000
    54 H22      8.3305   9.5694   5.8362   H         1 RES1   0.0000
    55 C25      6.7697   5.9968   6.8369   C.ar      1 RES1   0.0000
    56 H23      6.1659   5.8105   7.5458   H         1 RES1   0.0000
    57 C26      5.5313  11.6409  -0.1267   C.ar      1 RES1   0.0000
    58 H24      5.3366  12.3380  -0.7413   H         1 RES1   0.0000
    59 C27      9.9581  11.8951  -1.0525   C.3       1 RES1   0.0000
    60 H25      9.6535  12.3490  -1.8665   H         1 RES1   0.0000
    61 H26     10.9310  11.7827  -1.0865   H         1 RES1   0.0000
    62 H27      9.7182  12.4330  -0.2697   H         1 RES1   0.0000
    63 C28      8.0703   5.4599   6.8245   C.ar      1 RES1   0.0000
    64 H28      8.3429   4.9101   7.5500   H         1 RES1   0.0000
    65 C29      2.9839  13.5789   3.1891   C.3       1 RES1   0.0000
    66 H29      2.6384  14.1009   2.4353   H         1 RES1   0.0000
    67 H30      3.9221  13.8153   3.3473   H         1 RES1   0.0000
    68 H31      2.4581  13.7779   3.9923   H         1 RES1   0.0000
@<TRIPOS>BOND
     1     1     2    1
     2     3    43    1
     3     4     1    1
     4     5     8    1
     5     6     1    1
     6     7    25    1
     7     8     1    1
     8     9    11    1
     9    10     8    1
    10    11    12    1
    11    13    14    1
    12    15    16    1
    13    17    15    1
    14    18    19    1
    15    20    18    1
    16    21    10    1
    17    22    21    1
    18    23    24    1
    19    25    11    2
    20    26    25    1
    21    27     5    1
    22    28    27    1
    23    29    18    1
    24    30    29    1
    25    31    29    1
    26    32    15    1
    27    33    32    1
    28    34    32    1
    29    35     4   ar
    30    36    10    1
    31    37    36    1
    32    38    36    1
    33    39     7    1
    34    40    39    1
    35    41    39    1
    36    42     1    1
    37    43    35    1
    38    44    35   ar
    39    45    44    1
    40    46     4   ar
    41    47    46    1
    42    48     6   ar
    43    49     1    1
    44    50     5    1
    45    51     3    1
    46    52    51    1
    47    53    42    1
    48    54    53    1
    49    55    50   ar
    50    56    55    1
    51    57    13   ar
    52    58    57    1
    53    59    18    1
    54    60    59    1
    55    61    59    1
    56    62    59    1
    57    63    23   ar
    58    64    63    1
    59    65    15    1
    60    66    65    1
    61    67    65    1
    62    68    65    1
    63     6    50   ar
    64     7    49    1
    65     9    48    1
    66     9    49    1
    67    13    46   ar
    68    21    27    2
    69    23    48   ar
    70    29    39    1
    71    32    36    1
    72    42    43    2
    73    44    57   ar
    74    51    53    2
    75    55    63   ar
@<TRIPOS>SUBSTRUCTURE
     1 RES1        1 GROUP             0 ****  ****    0  
