@<TRIPOS>MOLECULE
01
    73    80     1     0     0
SMALL
NO_CHARGES
****
Generated from the CSD

@<TRIPOS>ATOM
     1 Ir1      5.1314   7.2592   6.8496   Ir        1 RES1   0.0000
     2 F1       2.4962   4.6732   2.8741   F         1 RES1   0.0000
     3 F2       3.6262   9.1185   2.1068   F         1 RES1   0.0000
     4 N1       2.7017   6.4091   8.2105   N.pl3     1 RES1   0.0000
     5 N2       6.7699   4.8721   6.7393   N.pl3     1 RES1   0.0000
     6 O1       6.0992   7.8010   8.6856   O.3       1 RES1   0.0000
     7 C1       6.8111   6.1823   6.3753   C.3       1 RES1   0.0000
     8 N3       5.4759   9.1661   5.9565   N.ar      1 RES1   0.0000
     9 C2       4.2738   6.9989   5.0401   C.ar      1 RES1   0.0000
    10 N4       2.4994   8.5453   8.1572   N.pl3     1 RES1   0.0000
    11 N5       7.3056   7.3782  10.6510   N.1       1 RES1   0.0000
    12 N6       8.0536   6.3557   5.8868   N.pl3     1 RES1   0.0000
    13 C3       3.3066   7.5581   7.7469   C.3       1 RES1   0.0000
    14 C4       3.4444   5.2071   8.0841   C.ar      1 RES1   0.0000
    15 C5       4.6670   5.4586   7.4940   C.ar      1 RES1   0.0000
    16 C6       8.7808   5.1819   5.9558   C.2       1 RES1   0.0000
    17 H1       9.6606   5.0583   5.6809   H         1 RES1   0.0000
    18 C7       8.5641   7.6316   5.3638   C.3       1 RES1   0.0000
    19 H2       9.5330   7.6346   5.4133   H         1 RES1   0.0000
    20 H3       8.2341   8.3594   5.9130   H         1 RES1   0.0000
    21 C8       4.9130   9.3461   4.7259   C.ar      1 RES1   0.0000
    22 C9       5.5576   4.4041   7.3370   C.ar      1 RES1   0.0000
    23 C10      2.7632   9.9653   7.9710   C.3       1 RES1   0.0000
    24 H4       3.7192  10.0966   7.8724   H         1 RES1   0.0000
    25 H5       2.4808  10.4433   8.7669   H         1 RES1   0.0000
    26 C11      3.6716   5.8263   4.5573   C.ar      1 RES1   0.0000
    27 H6       3.6650   5.0567   5.0808   H         1 RES1   0.0000
    28 C12      1.4024   8.0399   8.8561   C.2       1 RES1   0.0000
    29 H7       0.7082   8.5368   9.2260   H         1 RES1   0.0000
    30 C13      1.5322   6.7028   8.8982   C.2       1 RES1   0.0000
    31 H8       0.9559   6.0960   9.3041   H         1 RES1   0.0000
    32 C14      4.9605  10.5961   4.1167   C.ar      1 RES1   0.0000
    33 H9       4.5553  10.7243   3.2889   H         1 RES1   0.0000
    34 C15      8.1333   7.8561   3.9175   C.3       1 RES1   0.0000
    35 H10      7.1739   7.7296   3.8481   H         1 RES1   0.0000
    36 H11      8.5624   7.1956   3.3511   H         1 RES1   0.0000
    37 C16      5.2367   3.1192   7.7316   C.ar      1 RES1   0.0000
    38 H12      5.8387   2.4194   7.6249   H         1 RES1   0.0000
    39 C17      4.2567   8.1560   4.2049   C.ar      1 RES1   0.0000
    40 C18      7.9762   4.2551   6.4902   C.2       1 RES1   0.0000
    41 H13      8.1905   3.3666   6.6607   H         1 RES1   0.0000
    42 C19      3.0924   5.8166   3.3102   C.ar      1 RES1   0.0000
    43 C20      6.1182  10.1878   6.5420   C.ar      1 RES1   0.0000
    44 H14      6.5236  10.0466   7.3669   H         1 RES1   0.0000
    45 C21      3.9782   2.9102   8.2967   C.ar      1 RES1   0.0000
    46 H15      3.7452   2.0499   8.5634   H         1 RES1   0.0000
    47 C22      3.6558   8.0399   2.9444   C.ar      1 RES1   0.0000
    48 C23      6.6879   7.5678   9.6606   C.1       1 RES1   0.0000
    49 C24      3.0593   3.9377   8.4768   C.ar      1 RES1   0.0000
    50 H16      2.2210   3.7779   8.8469   H         1 RES1   0.0000
    51 C25      2.0624  10.5554   6.7718   C.3       1 RES1   0.0000
    52 H17      1.1055  10.4241   6.8604   H         1 RES1   0.0000
    53 H18      2.3560  10.0984   5.9691   H         1 RES1   0.0000
    54 C26      3.0639   6.9118   2.4693   C.ar      1 RES1   0.0000
    55 H19      2.6637   6.8786   1.6307   H         1 RES1   0.0000
    56 C27      8.4944   9.2551   3.4214   C.3       1 RES1   0.0000
    57 H20      8.0848   9.9145   4.0041   H         1 RES1   0.0000
    58 H21      9.4558   9.3719   3.4701   H         1 RES1   0.0000
    59 C28      5.6010  11.6390   4.7317   C.ar      1 RES1   0.0000
    60 H22      5.6352  12.4737   4.3220   H         1 RES1   0.0000
    61 C29      2.3573  12.0376   6.6454   C.3       1 RES1   0.0000
    62 H23      3.3072  12.1621   6.4926   H         1 RES1   0.0000
    63 H24      2.1280  12.4816   7.4760   H         1 RES1   0.0000
    64 C30      6.2012  11.4436   5.9711   C.ar      1 RES1   0.0000
    65 H25      6.6454  12.1376   6.4022   H         1 RES1   0.0000
    66 C31      1.5827  12.6781   5.5075   C.3       1 RES1   0.0000
    67 H26      1.8661  12.2976   4.6730   H         1 RES1   0.0000
    68 H27      1.7475  13.6238   5.5003   H         1 RES1   0.0000
    69 H28      0.6440  12.5179   5.6298   H         1 RES1   0.0000
    70 C32      8.0339   9.4970   1.9961   C.3       1 RES1   0.0000
    71 H29      8.4587   8.8645   1.4110   H         1 RES1   0.0000
    72 H30      8.2707  10.3879   1.7292   H         1 RES1   0.0000
    73 H31      7.0813   9.3896   1.9442   H         1 RES1   0.0000
@<TRIPOS>BOND
     1     1     6    1
     2     2    42    1
     3     3    47    1
     4     4    13    1
     5     5     7    1
     6     6    48    1
     7     7     1    1
     8     8     1    1
     9     9     1    1
    10    10    13    1
    11    11    48    3
    12    12     7    1
    13    13     1    1
    14    14     4    1
    15    15     1    1
    16    16    12    1
    17    17    16    1
    18    18    12    1
    19    19    18    1
    20    20    18    1
    21    21     8   ar
    22    22     5    1
    23    23    10    1
    24    24    23    1
    25    25    23    1
    26    26     9   ar
    27    27    26    1
    28    28    10    1
    29    29    28    1
    30    30     4    1
    31    31    30    1
    32    32    21   ar
    33    33    32    1
    34    34    18    1
    35    35    34    1
    36    36    34    1
    37    37    22   ar
    38    38    37    1
    39    39     9   ar
    40    40     5    1
    41    41    40    1
    42    42    26   ar
    43    43     8   ar
    44    44    43    1
    45    45    37   ar
    46    46    45    1
    47    47    39   ar
    48    49    14   ar
    49    50    49    1
    50    51    23    1
    51    52    51    1
    52    53    51    1
    53    54    42   ar
    54    55    54    1
    55    56    34    1
    56    57    56    1
    57    58    56    1
    58    59    32   ar
    59    60    59    1
    60    61    51    1
    61    62    61    1
    62    63    61    1
    63    64    43   ar
    64    65    64    1
    65    66    61    1
    66    67    66    1
    67    68    66    1
    68    69    66    1
    69    70    56    1
    70    71    70    1
    71    72    70    1
    72    73    70    1
    73    14    15   ar
    74    15    22   ar
    75    16    40    2
    76    21    39    1
    77    28    30    2
    78    45    49   ar
    79    47    54   ar
    80    59    64   ar
@<TRIPOS>SUBSTRUCTURE
     1 RES1        1 GROUP             0 ****  ****    0  
