@<TRIPOS>MOLECULE
01
   125   138     1     0     0
SMALL
NO_CHARGES
****
Generated from the CSD

@<TRIPOS>ATOM
     1 Ir1      9.0457   6.3900   5.4516   Ir        1 RES1   0.0000
     2 N1      10.6999   3.9510   3.8603   N.pl3     1 RES1   0.0000
     3 N2       9.1769   4.2474   5.6329   N.ar      1 RES1   0.0000
     4 N3       8.1543   6.0011   7.3066   N.2       1 RES1   0.0000
     5 N4       7.6208   6.7872   8.2532   N.2       1 RES1   0.0000
     6 N5       8.1926   0.1921   5.5932   N.pl3     1 RES1   0.0000
     7 N6      11.9996   6.4781   6.6715   N.pl3     1 RES1   0.0000
     8 N7      12.8157   9.9135   6.7338   N.ar      1 RES1   0.0000
     9 N8      11.0408   8.3757   6.1360   N.pl3     1 RES1   0.0000
    10 N9       6.7372   7.9322   4.6205   N.pl3     1 RES1   0.0000
    11 N10      4.7329   9.0918   3.9279   N.ar      1 RES1   0.0000
    12 N11      6.1544   5.8560   4.1870   N.pl3     1 RES1   0.0000
    13 C1       9.8147   6.3111   3.5612   C.ar      1 RES1   0.0000
    14 C2       9.7581   7.3132   2.5836   C.ar      1 RES1   0.0000
    15 H1       9.2667   8.1040   2.7758   H         1 RES1   0.0000
    16 C3      10.3888   7.2096   1.3375   C.ar      1 RES1   0.0000
    17 C4      11.1839   6.1206   1.0153   C.ar      1 RES1   0.0000
    18 H2      11.6592   6.0790   0.1936   H         1 RES1   0.0000
    19 C5      11.2559   5.0860   1.9535   C.ar      1 RES1   0.0000
    20 C6      10.5230   5.1688   3.1435   C.ar      1 RES1   0.0000
    21 C7      12.0054   3.8495   1.9839   C.ar      1 RES1   0.0000
    22 C8      12.9743   3.3075   1.1408   C.ar      1 RES1   0.0000
    23 H3      13.2222   3.7492   0.3374   H         1 RES1   0.0000
    24 C9      13.5635   2.1115   1.4984   C.ar      1 RES1   0.0000
    25 C10     13.2131   1.4568   2.6897   C.ar      1 RES1   0.0000
    26 H4      13.6396   0.6393   2.9175   H         1 RES1   0.0000
    27 C11     12.2518   1.9846   3.5429   C.ar      1 RES1   0.0000
    28 H5      12.0200   1.5481   4.3549   H         1 RES1   0.0000
    29 C12     11.6421   3.1728   3.1657   C.ar      1 RES1   0.0000
    30 C13      9.7470   3.3957   4.7531   C.ar      1 RES1   0.0000
    31 C14      9.4299   2.0569   4.6915   C.ar      1 RES1   0.0000
    32 H6       9.7958   1.5112   4.0056   H         1 RES1   0.0000
    33 C15      8.5543   1.4976   5.6554   C.ar      1 RES1   0.0000
    34 C16      8.0774   2.3625   6.6582   C.ar      1 RES1   0.0000
    35 H7       7.5494   2.0223   7.3710   H         1 RES1   0.0000
    36 C17      8.3808   3.7154   6.6023   C.ar      1 RES1   0.0000
    37 C18      7.8713   4.6976   7.5476   C.2       1 RES1   0.0000
    38 C19      7.1127   4.6157   8.7185   C.2       1 RES1   0.0000
    39 H8       6.7584   3.8427   9.1409   H         1 RES1   0.0000
    40 C20      7.0053   5.9406   9.1124   C.2       1 RES1   0.0000
    41 C21     10.2558   8.3066   0.3226   C.3       1 RES1   0.0000
    42 C22     14.5978   1.4685   0.6316   C.3       1 RES1   0.0000
    43 C23      8.6339  -0.6445   4.4855   C.3       1 RES1   0.0000
    44 H9       9.6103  -0.7215   4.5015   H         1 RES1   0.0000
    45 H10      8.3517  -0.2411   3.6376   H         1 RES1   0.0000
    46 H11      8.2350  -1.5369   4.5694   H         1 RES1   0.0000
    47 C24      7.2554  -0.3495   6.5863   C.3       1 RES1   0.0000
    48 H12      6.3882   0.0972   6.4936   H         1 RES1   0.0000
    49 H13      7.6090  -0.1937   7.4866   H         1 RES1   0.0000
    50 H14      7.1451  -1.3119   6.4400   H         1 RES1   0.0000
    51 C25      6.2816   6.4828  10.2847   C.3       1 RES1   0.0000
    52 C26     10.8513   7.0060   6.1792   C.3       1 RES1   0.0000
    53 C27     12.9292   7.4903   6.9272   C.ar      1 RES1   0.0000
    54 C28     14.2334   7.5189   7.3890   C.ar      1 RES1   0.0000
    55 H15     14.7076   6.7246   7.6032   H         1 RES1   0.0000
    56 C29     14.8096   8.7776   7.5250   C.ar      1 RES1   0.0000
    57 H16     15.7037   8.8638   7.8351   H         1 RES1   0.0000
    58 C30     14.0684   9.9113   7.2024   C.ar      1 RES1   0.0000
    59 C31     12.3011   8.6992   6.5982   C.ar      1 RES1   0.0000
    60 C32      9.9231   9.1735   5.7231   C.ar      1 RES1   0.0000
    61 C33      9.8469  10.5489   5.6166   C.ar      1 RES1   0.0000
    62 H17     10.5953  11.0913   5.8335   H         1 RES1   0.0000
    63 C34      8.6450  11.1315   5.1851   C.ar      1 RES1   0.0000
    64 C35      7.5476  10.3191   4.8683   C.ar      1 RES1   0.0000
    65 H18      6.7267  10.7043   4.5862   H         1 RES1   0.0000
    66 C36      7.6841   8.9442   4.9762   C.ar      1 RES1   0.0000
    67 C37      8.8672   8.3550   5.3948   C.ar      1 RES1   0.0000
    68 C38      7.1719   6.6162   4.6705   C.3       1 RES1   0.0000
    69 C39      5.4574   7.9935   4.1213   C.ar      1 RES1   0.0000
    70 C40      3.5052   8.8355   3.4457   C.ar      1 RES1   0.0000
    71 C41      2.9958   7.5759   3.1736   C.ar      1 RES1   0.0000
    72 H19      2.1036   7.4817   2.8613   H         1 RES1   0.0000
    73 C42      3.7898   6.4481   3.3544   C.ar      1 RES1   0.0000
    74 H20      3.4748   5.5744   3.1549   H         1 RES1   0.0000
    75 C43      5.0638   6.6694   3.8443   C.ar      1 RES1   0.0000
    76 C44     12.1155   5.0507   7.0566   C.3       1 RES1   0.0000
    77 H21     11.2954   4.5882   6.7192   H         1 RES1   0.0000
    78 C45     13.3002   4.3961   6.3862   C.3       1 RES1   0.0000
    79 H22     14.1295   4.7594   6.7626   H         1 RES1   0.0000
    80 H23     13.2719   4.5761   5.4240   H         1 RES1   0.0000
    81 H24     13.2686   3.4289   6.5397   H         1 RES1   0.0000
    82 C46     12.1126   4.9158   8.5725   C.3       1 RES1   0.0000
    83 H25     11.2784   5.2825   8.9311   H         1 RES1   0.0000
    84 H26     12.8737   5.4085   8.9447   H         1 RES1   0.0000
    85 H27     12.1857   3.9693   8.8154   H         1 RES1   0.0000
    86 C47     14.6500  11.2870   7.4026   C.3       1 RES1   0.0000
    87 C48      8.5858  12.6636   5.0471   C.3       1 RES1   0.0000
    88 C49      9.6037  13.1166   4.0346   C.3       1 RES1   0.0000
    89 H28      9.6020  14.0953   3.9847   H         1 RES1   0.0000
    90 H29      9.3793  12.7440   3.1567   H         1 RES1   0.0000
    91 H30     10.4933  12.8050   4.3040   H         1 RES1   0.0000
    92 C50      8.9026  13.3159   6.4075   C.3       1 RES1   0.0000
    93 H31      8.1834  13.1155   7.0414   H         1 RES1   0.0000
    94 H32      8.9778  14.2866   6.2942   H         1 RES1   0.0000
    95 H33      9.7494  12.9608   6.7503   H         1 RES1   0.0000
    96 C51      7.2148  13.1688   4.6623   C.3       1 RES1   0.0000
    97 H34      6.9367  12.7490   3.8217   H         1 RES1   0.0000
    98 H35      7.2449  14.1412   4.5483   H         1 RES1   0.0000
    99 H36      6.5734  12.9421   5.3682   H         1 RES1   0.0000
   100 C52      2.6899  10.0667   3.1115   C.3       1 RES1   0.0000
   101 C53      6.3633   4.4402   3.7977   C.3       1 RES1   0.0000
   102 H37      7.2656   4.1762   4.1376   H         1 RES1   0.0000
   103 C54      6.4137   4.3295   2.2777   C.3       1 RES1   0.0000
   104 H38      7.0931   4.9431   1.9280   H         1 RES1   0.0000
   105 H39      5.5384   4.5644   1.9041   H         1 RES1   0.0000
   106 H40      6.6412   3.4110   2.0246   H         1 RES1   0.0000
   107 C55      5.3564   3.5006   4.4427   C.3       1 RES1   0.0000
   108 H41      4.4689   3.6601   4.0589   H         1 RES1   0.0000
   109 H42      5.3291   3.6651   5.4084   H         1 RES1   0.0000
   110 H43      5.6229   2.5729   4.2763   H         1 RES1   0.0000
   111 F1       9.7953   9.4556   0.8221   F         1 RES1   0.0000
   112 F2      11.4388   8.6683  -0.2079   F         1 RES1   0.0000
   113 F3       9.5221   7.9262  -0.7307   F         1 RES1   0.0000
   114 F4      15.7025   1.1447   1.3526   F         1 RES1   0.0000
   115 F5      14.2155   0.4021   0.0602   F         1 RES1   0.0000
   116 F6      15.1094   2.3578  -0.2352   F         1 RES1   0.0000
   117 F7       4.9367   6.4964  10.0970   F         1 RES1   0.0000
   118 F8       6.4271   5.7234  11.3701   F         1 RES1   0.0000
   119 F9       6.6103   7.7104  10.5912   F         1 RES1   0.0000
   120 F10     14.3985  12.1312   6.3998   F         1 RES1   0.0000
   121 F11     15.9950  11.2799   7.4764   F         1 RES1   0.0000
   122 F12     14.1022  11.8831   8.4423   F         1 RES1   0.0000
   123 F13      2.8818  10.4253   1.8544   F         1 RES1   0.0000
   124 F14      2.9719  11.1053   3.8692   F         1 RES1   0.0000
   125 F15      1.3926   9.8519   3.2533   F         1 RES1   0.0000
@<TRIPOS>BOND
     1     1     3    1
     2     2    20    1
     3     3    30   ar
     4     4     1    1
     5     5     4    1
     6     6    33    1
     7     7    52    1
     8     8    58   ar
     9     9    52    1
    10    10    66    1
    11    11    69   ar
    12    12    68    1
    13    13     1    1
    14    14    13   ar
    15    15    14    1
    16    16    14   ar
    17    17    16   ar
    18    18    17    1
    19    19    17   ar
    20    20    13   ar
    21    21    19    1
    22    22    21   ar
    23    23    22    1
    24    24    22   ar
    25    25    24   ar
    26    26    25    1
    27    27    25   ar
    28    28    27    1
    29    29     2    1
    30    30     2    1
    31    31    30   ar
    32    32    31    1
    33    33    31   ar
    34    34    33   ar
    35    35    34    1
    36    36     3   ar
    37    37     4    1
    38    38    37    2
    39    39    38    1
    40    40     5    2
    41    41    16    1
    42    42    24    1
    43    43     6    1
    44    44    43    1
    45    45    43    1
    46    46    43    1
    47    47     6    1
    48    48    47    1
    49    49    47    1
    50    50    47    1
    51    51    40    1
    52    52     1    1
    53    53     7    1
    54    54    53   ar
    55    55    54    1
    56    56    54   ar
    57    57    56    1
    58    58    56   ar
    59    59     8   ar
    60    60     9    1
    61    61    60   ar
    62    62    61    1
    63    63    61   ar
    64    64    63   ar
    65    65    64    1
    66    66    64   ar
    67    67     1    1
    68    68     1    1
    69    69    10    1
    70    70    11   ar
    71    71    70   ar
    72    72    71    1
    73    73    71   ar
    74    74    73    1
    75    75    12    1
    76    76     7    1
    77    77    76    1
    78    78    76    1
    79    79    78    1
    80    80    78    1
    81    81    78    1
    82    82    76    1
    83    83    82    1
    84    84    82    1
    85    85    82    1
    86    86    58    1
    87    87    63    1
    88    88    87    1
    89    89    88    1
    90    90    88    1
    91    91    88    1
    92    92    87    1
    93    93    92    1
    94    94    92    1
    95    95    92    1
    96    96    87    1
    97    97    96    1
    98    98    96    1
    99    99    96    1
   100   100    70    1
   101   101    12    1
   102   102   101    1
   103   103   101    1
   104   104   103    1
   105   105   103    1
   106   106   103    1
   107   107   101    1
   108   108   107    1
   109   109   107    1
   110   110   107    1
   111   111    41    1
   112   112    41    1
   113   113    41    1
   114   114    42    1
   115   115    42    1
   116   116    42    1
   117   117    51    1
   118   118    51    1
   119   119    51    1
   120   120    86    1
   121   121    86    1
   122   122    86    1
   123   123   100    1
   124   124   100    1
   125   125   100    1
   126     9    59    1
   127    10    68    1
   128    19    20   ar
   129    21    29   ar
   130    27    29   ar
   131    34    36   ar
   132    36    37    1
   133    38    40    1
   134    53    59   ar
   135    60    67   ar
   136    66    67   ar
   137    69    75   ar
   138    73    75   ar
@<TRIPOS>SUBSTRUCTURE
     1 RES1        1 GROUP             0 ****  ****    0  
