@<TRIPOS>MOLECULE
01
    84    93     1     0     0
SMALL
NO_CHARGES
****
Generated from the CSD

@<TRIPOS>ATOM
     1 Ir1      1.3241  12.7171  16.3804   Ir        1 RES1   0.0000
     2 N1       3.1259  12.2953  17.2640   N.ar      1 RES1   0.0000
     3 N2       5.2207  11.2105  17.1365   N.ar      1 RES1   0.0000
     4 N3       2.3943  11.6626  14.8644   N.2       1 RES1   0.0000
     5 N4       2.1445  11.2629  13.6102   N.2       1 RES1   0.0000
     6 N5       2.5300  15.5679  15.5591   N.pl3     1 RES1   0.0000
     7 N6       0.4919  15.1533  15.0124   N.pl3     1 RES1   0.0000
     8 N7      -1.0960  11.0985  16.4488   N.pl3     1 RES1   0.0000
     9 N8       0.3242   9.8836  17.5180   N.pl3     1 RES1   0.0000
    10 C1       1.0580  13.5709  18.1938   C.ar      1 RES1   0.0000
    11 C2      -0.0472  14.2710  18.6883   C.ar      1 RES1   0.0000
    12 H1      -0.8423  14.3351  18.1713   H         1 RES1   0.0000
    13 C3       0.0229  14.8651  19.9249   C.ar      1 RES1   0.0000
    14 C4       1.1339  14.8174  20.7434   C.ar      1 RES1   0.0000
    15 H2       1.1456  15.2666  21.5813   H         1 RES1   0.0000
    16 C5       2.2251  14.0963  20.3058   C.ar      1 RES1   0.0000
    17 H3       2.9957  14.0223  20.8568   H         1 RES1   0.0000
    18 C6       2.2018  13.4726  19.0527   C.ar      1 RES1   0.0000
    19 C7       3.3314  12.6935  18.5384   C.ar      1 RES1   0.0000
    20 C8       4.5127  12.3057  19.1585   C.ar      1 RES1   0.0000
    21 H4       4.6906  12.5489  20.0594   H         1 RES1   0.0000
    22 C9       5.4272  11.5528  18.4326   C.ar      1 RES1   0.0000
    23 C10      4.0725  11.5956  16.6013   C.ar      1 RES1   0.0000
    24 C11      3.6569  11.2710  15.2377   C.2       1 RES1   0.0000
    25 C12      4.2521  10.5974  14.1811   C.2       1 RES1   0.0000
    26 H5       5.1194  10.2125  14.1374   H         1 RES1   0.0000
    27 C13      3.2680  10.6228  13.2039   C.2       1 RES1   0.0000
    28 C14      3.2983  10.0094  11.8554   C.3       1 RES1   0.0000
    29 C15      6.7430  11.0370  19.0264   C.3       1 RES1   0.0000
    30 C16      7.8836  11.8875  18.4322   C.3       1 RES1   0.0000
    31 H6       8.7470  11.5337  18.7353   H         1 RES1   0.0000
    32 H7       7.7890  12.8156  18.7305   H         1 RES1   0.0000
    33 H8       7.8418  11.8516  17.4550   H         1 RES1   0.0000
    34 C17      6.7969  11.1918  20.5327   C.3       1 RES1   0.0000
    35 H9       6.0140  10.7594  20.9330   H         1 RES1   0.0000
    36 H10      6.7996  12.1439  20.7628   H         1 RES1   0.0000
    37 H11      7.6131  10.7697  20.8746   H         1 RES1   0.0000
    38 C18      6.9577   9.5972  18.6235   C.3       1 RES1   0.0000
    39 H12      7.8311   9.2946  18.9476   H         1 RES1   0.0000
    40 H13      6.9279   9.5237  17.6478   H         1 RES1   0.0000
    41 H14      6.2521   9.0400  19.0157   H         1 RES1   0.0000
    42 C19      1.6031  14.5950  15.6028   C.3       1 RES1   0.0000
    43 C20      2.0268  16.7026  14.9461   C.2       1 RES1   0.0000
    44 H15      2.4956  17.5142  14.7954   H         1 RES1   0.0000
    45 C21      0.7557  16.4480  14.6074   C.2       1 RES1   0.0000
    46 H16      0.1538  17.0407  14.1714   H         1 RES1   0.0000
    47 C22     -0.6957  14.3641  15.0082   C.ar      1 RES1   0.0000
    48 C23     -1.9452  14.7176  14.5314   C.ar      1 RES1   0.0000
    49 H17     -2.0833  15.5606  14.1163   H         1 RES1   0.0000
    50 C24     -3.0095  13.8050  14.6725   C.ar      1 RES1   0.0000
    51 C25     -2.7847  12.5790  15.2976   C.ar      1 RES1   0.0000
    52 H18     -3.4941  11.9576  15.4032   H         1 RES1   0.0000
    53 C26     -1.5126  12.2768  15.7631   C.ar      1 RES1   0.0000
    54 C27     -0.4520  13.1502  15.6254   C.ar      1 RES1   0.0000
    55 C28      0.2105  11.0666  16.8733   C.3       1 RES1   0.0000
    56 C29     -1.7654   9.9438  16.8192   C.2       1 RES1   0.0000
    57 H19     -2.6739   9.7288  16.6398   H         1 RES1   0.0000
    58 C30     -0.8715   9.1883  17.4841   C.2       1 RES1   0.0000
    59 H20     -1.0314   8.3324  17.8618   H         1 RES1   0.0000
    60 C31      3.8770  15.4272  16.0790   C.3       1 RES1   0.0000
    61 H21      3.8450  15.3743  17.0579   H         1 RES1   0.0000
    62 H22      4.4132  16.2032  15.8116   H         1 RES1   0.0000
    63 H23      4.2817  14.6102  15.7208   H         1 RES1   0.0000
    64 C32     -4.3928  14.1952  14.1325   C.3       1 RES1   0.0000
    65 C33     -4.8997  15.4187  14.9121   C.3       1 RES1   0.0000
    66 H24     -4.9716  15.1931  15.8634   H         1 RES1   0.0000
    67 H25     -5.7809  15.6802  14.5717   H         1 RES1   0.0000
    68 H26     -4.2718  16.1605  14.7986   H         1 RES1   0.0000
    69 C34     -4.2797  14.5402  12.6415   C.3       1 RES1   0.0000
    70 H27     -3.6691  15.2973  12.5280   H         1 RES1   0.0000
    71 H28     -5.1642  14.7777  12.2930   H         1 RES1   0.0000
    72 H29     -3.9344  13.7642  12.1536   H         1 RES1   0.0000
    73 C35     -5.4173  13.0651  14.2735   C.3       1 RES1   0.0000
    74 H30     -5.1058  12.2772  13.7792   H         1 RES1   0.0000
    75 H31     -6.2788  13.3574  13.9089   H         1 RES1   0.0000
    76 H32     -5.5234  12.8344  15.2200   H         1 RES1   0.0000
    77 C36      1.5247   9.4363  18.2135   C.3       1 RES1   0.0000
    78 H33      2.2713   9.3886  17.5798   H         1 RES1   0.0000
    79 H34      1.3681   8.5494  18.5992   H         1 RES1   0.0000
    80 H35      1.7438  10.0706  18.9282   H         1 RES1   0.0000
    81 F1      -1.0731  15.5433  20.3713   F         1 RES1   0.0000
    82 F2       3.1687   8.6947  11.9203   F         1 RES1   0.0000
    83 F3       2.6315  10.5902  10.9171   F         1 RES1   0.0000
    84 F4       4.6654  10.0176  11.3741   F         1 RES1   0.0000
@<TRIPOS>BOND
     1     1     2    1
     2     2    19   ar
     3     3    22   ar
     4     4     1    1
     5     5     4    1
     6     6    42    1
     7     7    42    1
     8     8    53    1
     9     9    55    1
    10    10     1    1
    11    11    10   ar
    12    12    11    1
    13    13    11   ar
    14    14    13   ar
    15    15    14    1
    16    16    14   ar
    17    17    16    1
    18    18    10   ar
    19    19    18    1
    20    20    19   ar
    21    21    20    1
    22    22    20   ar
    23    23     2   ar
    24    24     4    1
    25    25    24    2
    26    26    25    1
    27    27     5    2
    28    28    27    1
    29    29    22    1
    30    30    29    1
    31    31    30    1
    32    32    30    1
    33    33    30    1
    34    34    29    1
    35    35    34    1
    36    36    34    1
    37    37    34    1
    38    38    29    1
    39    39    38    1
    40    40    38    1
    41    41    38    1
    42    42     1    1
    43    43     6    1
    44    44    43    1
    45    45     7    1
    46    46    45    1
    47    47     7    1
    48    48    47   ar
    49    49    48    1
    50    50    48   ar
    51    51    50   ar
    52    52    51    1
    53    53    51   ar
    54    54     1    1
    55    55     1    1
    56    56     8    1
    57    57    56    1
    58    58     9    1
    59    59    58    1
    60    60     6    1
    61    61    60    1
    62    62    60    1
    63    63    60    1
    64    64    50    1
    65    65    64    1
    66    66    65    1
    67    67    65    1
    68    68    65    1
    69    69    64    1
    70    70    69    1
    71    71    69    1
    72    72    69    1
    73    73    64    1
    74    74    73    1
    75    75    73    1
    76    76    73    1
    77    77     9    1
    78    78    77    1
    79    79    77    1
    80    80    77    1
    81    81    13    1
    82    82    28    1
    83    83    28    1
    84    84    28    1
    85     3    23   ar
    86     8    55    1
    87    16    18   ar
    88    23    24    1
    89    25    27    1
    90    43    45    2
    91    47    54   ar
    92    53    54   ar
    93    56    58    2
@<TRIPOS>SUBSTRUCTURE
     1 RES1        1 GROUP             0 ****  ****    0  
