@<TRIPOS>MOLECULE
01
    85    94     1     0     0
SMALL
NO_CHARGES
****
Generated from the CSD

@<TRIPOS>ATOM
     1 Ir1      4.8660   2.5267   2.2755   Ir        1 RES1   0.0000
     2 N1       5.2006   0.6804   3.1081   N.ar      1 RES1   0.0000
     3 N2       5.1213   1.2875   0.5793   N.2       1 RES1   0.0000
     4 N3       5.0316   1.4554  -0.7441   N.2       1 RES1   0.0000
     5 N4       8.0563   3.0515   2.2272   N.pl3     1 RES1   0.0000
     6 N5       6.7396   4.6964   1.7832   N.pl3     1 RES1   0.0000
     7 N6       2.2747   3.7003   1.6723   N.pl3     1 RES1   0.0000
     8 N7       1.7964   1.6349   2.0405   N.pl3     1 RES1   0.0000
     9 C1       4.7080   2.9927   4.2244   C.ar      1 RES1   0.0000
    10 C2       4.4597   4.2271   4.8163   C.ar      1 RES1   0.0000
    11 H1       4.3219   4.9921   4.2711   H         1 RES1   0.0000
    12 C3       4.4116   4.3520   6.1948   C.ar      1 RES1   0.0000
    13 C4       4.5949   3.2884   7.0603   C.ar      1 RES1   0.0000
    14 H2       4.5663   3.3946   8.0049   H         1 RES1   0.0000
    15 C5       4.8172   2.0870   6.4765   C.ar      1 RES1   0.0000
    16 C6       4.8809   1.8645   5.0981   C.ar      1 RES1   0.0000
    17 C7       5.1395   0.5741   4.4555   C.ar      1 RES1   0.0000
    18 C8       5.2500  -0.7048   5.0332   C.ar      1 RES1   0.0000
    19 H3       5.2019  -0.8138   5.9758   H         1 RES1   0.0000
    20 C9       5.4281  -1.7913   4.2123   C.ar      1 RES1   0.0000
    21 H4       5.4970  -2.6554   4.6015   H         1 RES1   0.0000
    22 C10      5.5126  -1.6679   2.8278   C.ar      1 RES1   0.0000
    23 H5       5.6634  -2.4243   2.2724   H         1 RES1   0.0000
    24 C11      5.3644  -0.3875   2.2845   C.ar      1 RES1   0.0000
    25 C12      5.3150  -0.0301   0.8879   C.2       1 RES1   0.0000
    26 C13      5.3683  -0.7492  -0.3081   C.2       1 RES1   0.0000
    27 H6       5.5061  -1.6808  -0.4277   H         1 RES1   0.0000
    28 C14      5.1733   0.2153  -1.2669   C.2       1 RES1   0.0000
    29 C15      5.1798   0.0718  -2.7143   C.3       1 RES1   0.0000
    30 C16      6.7253   3.3716   2.1426   C.3       1 RES1   0.0000
    31 C17      8.8466   4.1567   1.9359   C.2       1 RES1   0.0000
    32 H7       9.7968   4.1855   1.9440   H         1 RES1   0.0000
    33 C18      8.0342   5.1658   1.6440   C.2       1 RES1   0.0000
    34 H8       8.2916   6.0428   1.3865   H         1 RES1   0.0000
    35 C19      4.4805   4.3749   1.6602   C.ar      1 RES1   0.0000
    36 C20      5.4840   5.3050   1.5568   C.ar      1 RES1   0.0000
    37 C21      5.2071   6.6557   1.3358   C.ar      1 RES1   0.0000
    38 H9       5.9155   7.2858   1.2750   H         1 RES1   0.0000
    39 C22      3.8748   7.0734   1.2081   C.ar      1 RES1   0.0000
    40 C23      2.8414   6.1303   1.2912   C.ar      1 RES1   0.0000
    41 H10      1.9341   6.3944   1.1940   H         1 RES1   0.0000
    42 C24      3.1729   4.8012   1.5183   C.ar      1 RES1   0.0000
    43 C25      2.8336   2.4975   2.0291   C.3       1 RES1   0.0000
    44 C26      0.9099   3.5654   1.4575   C.2       1 RES1   0.0000
    45 H11      0.3029   4.2500   1.1960   H         1 RES1   0.0000
    46 C27      0.6213   2.2951   1.6845   C.2       1 RES1   0.0000
    47 H12     -0.2405   1.9004   1.6196   H         1 RES1   0.0000
    48 C28      8.5334   1.7612   2.7345   C.3       1 RES1   0.0000
    49 H13      7.9264   1.0464   2.3879   H         1 RES1   0.0000
    50 C29      8.4697   1.7382   4.2508   C.3       1 RES1   0.0000
    51 H14      9.1066   2.3884   4.6157   H         1 RES1   0.0000
    52 H15      8.6985   0.8411   4.5731   H         1 RES1   0.0000
    53 H16      7.5637   1.9693   4.5427   H         1 RES1   0.0000
    54 C30      9.9463   1.4626   2.2440   C.3       1 RES1   0.0000
    55 H17      9.9801   1.5573   1.2690   H         1 RES1   0.0000
    56 H18     10.1920   0.5469   2.4913   H         1 RES1   0.0000
    57 H19     10.5754   2.0927   2.6555   H         1 RES1   0.0000
    58 C31      3.5563   8.5790   1.0541   C.3       1 RES1   0.0000
    59 C32      4.5143   9.2422   0.0243   C.3       1 RES1   0.0000
    60 H20      5.4424   9.1144   0.3101   H         1 RES1   0.0000
    61 H21      4.3193  10.2010  -0.0324   H         1 RES1   0.0000
    62 H22      4.3830   8.8302  -0.8554   H         1 RES1   0.0000
    63 C33      3.7825   9.2508   2.4061   C.3       1 RES1   0.0000
    64 H23      4.6950   9.0670   2.7122   H         1 RES1   0.0000
    65 H24      3.1417   8.8962   3.0589   H         1 RES1   0.0000
    66 H25      3.6564  10.2182   2.3149   H         1 RES1   0.0000
    67 C34      2.1447   8.8503   0.5635   C.3       1 RES1   0.0000
    68 H26      2.0160   8.4269  -0.3122   H         1 RES1   0.0000
    69 H27      2.0082   9.8177   0.4804   H         1 RES1   0.0000
    70 H28      1.5000   8.4829   1.2021   H         1 RES1   0.0000
    71 C35      1.9108   0.2311   2.4224   C.3       1 RES1   0.0000
    72 H29      2.8492   0.0675   2.7244   H         1 RES1   0.0000
    73 C36      1.6053  -0.7263   1.2791   C.3       1 RES1   0.0000
    74 H30      2.4346  -1.1583   0.9852   H         1 RES1   0.0000
    75 H31      1.2127  -0.2282   0.5311   H         1 RES1   0.0000
    76 H32      0.9723  -1.4095   1.5852   H         1 RES1   0.0000
    77 C37      0.9840  -0.0215   3.6062   C.3       1 RES1   0.0000
    78 H33      1.3414   0.4249   4.4028   H         1 RES1   0.0000
    79 H34      0.9203  -0.9846   3.7724   H         1 RES1   0.0000
    80 H35      0.0923   0.3344   3.4055   H         1 RES1   0.0000
    81 F1       4.1920   5.5734   6.7396   F         1 RES1   0.0000
    82 F2       5.0329   1.0363   7.3220   F         1 RES1   0.0000
    83 F3       4.1660   0.7048  -3.3427   F         1 RES1   0.0000
    84 F4       5.0472  -1.2186  -3.1217   F         1 RES1   0.0000
    85 F5       6.3185   0.5110  -3.2879   F         1 RES1   0.0000
@<TRIPOS>BOND
     1     1     2    1
     2     2    17   ar
     3     3     1    1
     4     4     3    1
     5     5    30    1
     6     6    30    1
     7     7    42    1
     8     8    43    1
     9     9     1    1
    10    10     9   ar
    11    11    10    1
    12    12    10   ar
    13    13    12   ar
    14    14    13    1
    15    15    13   ar
    16    16     9   ar
    17    17    16    1
    18    18    17   ar
    19    19    18    1
    20    20    18   ar
    21    21    20    1
    22    22    20   ar
    23    23    22    1
    24    24     2   ar
    25    25     3    1
    26    26    25    2
    27    27    26    1
    28    28     4    2
    29    29    28    1
    30    30     1    1
    31    31     5    1
    32    32    31    1
    33    33     6    1
    34    34    33    1
    35    35     1    1
    36    36     6    1
    37    37    36   ar
    38    38    37    1
    39    39    37   ar
    40    40    39   ar
    41    41    40    1
    42    42    35   ar
    43    43     1    1
    44    44     7    1
    45    45    44    1
    46    46     8    1
    47    47    46    1
    48    48     5    1
    49    49    48    1
    50    50    48    1
    51    51    50    1
    52    52    50    1
    53    53    50    1
    54    54    48    1
    55    55    54    1
    56    56    54    1
    57    57    54    1
    58    58    39    1
    59    59    58    1
    60    60    59    1
    61    61    59    1
    62    62    59    1
    63    63    58    1
    64    64    63    1
    65    65    63    1
    66    66    63    1
    67    67    58    1
    68    68    67    1
    69    69    67    1
    70    70    67    1
    71    71     8    1
    72    72    71    1
    73    73    71    1
    74    74    73    1
    75    75    73    1
    76    76    73    1
    77    77    71    1
    78    78    77    1
    79    79    77    1
    80    80    77    1
    81    81    12    1
    82    82    15    1
    83    83    29    1
    84    84    29    1
    85    85    29    1
    86     7    43    1
    87    15    16   ar
    88    22    24   ar
    89    24    25    1
    90    26    28    1
    91    31    33    2
    92    35    36   ar
    93    40    42   ar
    94    44    46    2
@<TRIPOS>SUBSTRUCTURE
     1 RES1        1 GROUP             0 ****  ****    0  
