@<TRIPOS>MOLECULE
02
    76    85     1     0     0
SMALL
NO_CHARGES
****
Generated from the CSD

@<TRIPOS>ATOM
     1 Ir2     11.1125   3.0285   4.6783   Ir        1 RES1   0.0000
     2 N6       9.7617   2.3344   3.2771   N.ar      1 RES1   0.0000
     3 N7      10.6342   5.9665   3.4093   N.pl3     1 RES1   0.0000
     4 N8      11.9189   5.7887   5.1221   N.pl3     1 RES1   0.0000
     5 N9      12.4680   1.5628   6.8060   N.pl3     1 RES1   0.0000
     6 N10     11.3930   0.0228   5.7609   N.pl3     1 RES1   0.0000
     7 C37     12.3817   2.4950   3.1216   C.ar      1 RES1   0.0000
     8 C38     13.7841   2.4166   3.1070   C.ar      1 RES1   0.0000
     9 H28     14.2833   2.6765   3.8716   H         1 RES1   0.0000
    10 C39     14.4270   1.9653   1.9899   C.ar      1 RES1   0.0000
    11 C40     13.7941   1.6098   0.8189   C.ar      1 RES1   0.0000
    12 H29     14.2741   1.3303   0.0494   H         1 RES1   0.0000
    13 C41     12.4225   1.6865   0.8365   C.ar      1 RES1   0.0000
    14 C42     11.6859   2.0652   1.9462   C.ar      1 RES1   0.0000
    15 C43     10.2178   1.9706   2.0535   C.ar      1 RES1   0.0000
    16 C44      9.3051   1.5357   1.0916   C.ar      1 RES1   0.0000
    17 H30      9.6021   1.2776   0.2267   H         1 RES1   0.0000
    18 C45      7.9629   1.4856   1.4146   C.ar      1 RES1   0.0000
    19 H31      7.3342   1.1993   0.7623   H         1 RES1   0.0000
    20 C46      7.5207   1.8461   2.6726   C.ar      1 RES1   0.0000
    21 H32      6.5962   1.8102   2.8863   H         1 RES1   0.0000
    22 C47      8.4541   2.2642   3.6257   C.ar      1 RES1   0.0000
    23 C48      8.2217   2.6543   5.0237   C.ar      1 RES1   0.0000
    24 C49      7.0052   2.5384   5.6897   C.ar      1 RES1   0.0000
    25 C50      6.8166   2.8871   7.0069   C.ar      1 RES1   0.0000
    26 H33      5.9786   2.7782   7.4416   H         1 RES1   0.0000
    27 C51      7.9173   3.4046   7.6604   C.ar      1 RES1   0.0000
    28 C52      9.1527   3.5573   7.0791   C.ar      1 RES1   0.0000
    29 H34      9.8718   3.9330   7.5732   H         1 RES1   0.0000
    30 C53      9.3447   3.1526   5.7491   C.ar      1 RES1   0.0000
    31 C54     11.1447   5.0420   4.2564   C.3       1 RES1   0.0000
    32 C55     11.0601   7.2489   3.7539   C.2       1 RES1   0.0000
    33 H35     10.8242   8.0560   3.3122   H         1 RES1   0.0000
    34 C56     11.8601   7.1389   4.8192   C.2       1 RES1   0.0000
    35 H36     12.3007   7.8455   5.2773   H         1 RES1   0.0000
    36 C57     12.3428   3.7312   6.0487   C.ar      1 RES1   0.0000
    37 C58     12.6207   5.0910   6.1236   C.ar      1 RES1   0.0000
    38 C59     13.4896   5.6203   7.0650   C.ar      1 RES1   0.0000
    39 H37     13.6885   6.5490   7.0851   H         1 RES1   0.0000
    40 C60     14.0602   4.7399   7.9804   C.ar      1 RES1   0.0000
    41 C61     13.7741   3.3649   7.9790   C.ar      1 RES1   0.0000
    42 H38     14.1616   2.7801   8.6187   H         1 RES1   0.0000
    43 C62     12.9073   2.8970   7.0096   C.ar      1 RES1   0.0000
    44 C63     11.6267   1.3526   5.7354   C.3       1 RES1   0.0000
    45 C64     12.7269   0.3843   7.4807   C.2       1 RES1   0.0000
    46 H39     13.2663   0.2779   8.2550   H         1 RES1   0.0000
    47 C65     12.0619  -0.5782   6.8228   C.2       1 RES1   0.0000
    48 H40     12.0511  -1.5015   7.0431   H         1 RES1   0.0000
    49 C66      9.7578   5.6627   2.2615   C.3       1 RES1   0.0000
    50 H41      9.8389   4.6873   2.0619   H         1 RES1   0.0000
    51 C67     10.1912   6.4440   1.0072   C.3       1 RES1   0.0000
    52 H42      9.5939   6.2231   0.2614   H         1 RES1   0.0000
    53 H43     10.1459   7.4049   1.1882   H         1 RES1   0.0000
    54 H44     11.1112   6.1998   0.7714   H         1 RES1   0.0000
    55 C68      8.3275   5.9415   2.6487   C.3       1 RES1   0.0000
    56 H45      7.7393   5.7418   1.8901   H         1 RES1   0.0000
    57 H46      8.0796   5.3777   3.4109   H         1 RES1   0.0000
    58 H47      8.2335   6.8851   2.8955   H         1 RES1   0.0000
    59 C69     15.0536   5.2851   8.9566   C.3       1 RES1   0.0000
    60 C70     10.6439  -0.6916   4.7027   C.3       1 RES1   0.0000
    61 H48     10.0871  -0.0213   4.2116   H         1 RES1   0.0000
    62 C71     11.6170  -1.3054   3.7173   C.3       1 RES1   0.0000
    63 H49     12.2036  -0.6073   3.3579   H         1 RES1   0.0000
    64 H50     11.1192  -1.7231   2.9832   H         1 RES1   0.0000
    65 H51     12.1581  -1.9843   4.1732   H         1 RES1   0.0000
    66 C72      9.7074  -1.7242   5.3146   C.3       1 RES1   0.0000
    67 H52     10.2356  -2.4252   5.7525   H         1 RES1   0.0000
    68 H53      9.1567  -2.1243   4.6101   H         1 RES1   0.0000
    69 H54      9.1282  -1.2897   5.9755   H         1 RES1   0.0000
    70 F8      15.7894   1.8447   2.0129   F         1 RES1   0.0000
    71 F9      11.7852   1.3715  -0.3321   F         1 RES1   0.0000
    72 F10      5.9054   2.0740   5.0296   F         1 RES1   0.0000
    73 F11      7.7735   3.7682   8.9701   F         1 RES1   0.0000
    74 F12     16.2709   5.3927   8.4513   F         1 RES1   0.0000
    75 F13     15.1467   4.5639  10.0740   F         1 RES1   0.0000
    76 F14     14.7440   6.5157   9.3731   F         1 RES1   0.0000
@<TRIPOS>BOND
     1     1     2    1
     2     2    15   ar
     3     3    31    1
     4     4    31    1
     5     5    43    1
     6     6    44    1
     7     7     1    1
     8     8     7   ar
     9     9     8    1
    10    10     8   ar
    11    11    10   ar
    12    12    11    1
    13    13    11   ar
    14    14     7   ar
    15    15    14    1
    16    16    15   ar
    17    17    16    1
    18    18    16   ar
    19    19    18    1
    20    20    18   ar
    21    21    20    1
    22    22     2   ar
    23    23    22    1
    24    24    23   ar
    25    25    24   ar
    26    26    25    1
    27    27    25   ar
    28    28    27   ar
    29    29    28    1
    30    30     1    1
    31    31     1    1
    32    32     3    1
    33    33    32    1
    34    34     4    1
    35    35    34    1
    36    36     1    1
    37    37     4    1
    38    38    37   ar
    39    39    38    1
    40    40    38   ar
    41    41    40   ar
    42    42    41    1
    43    43    36   ar
    44    44     1    1
    45    45     5    1
    46    46    45    1
    47    47     6    1
    48    48    47    1
    49    49     3    1
    50    50    49    1
    51    51    49    1
    52    52    51    1
    53    53    51    1
    54    54    51    1
    55    55    49    1
    56    56    55    1
    57    57    55    1
    58    58    55    1
    59    59    40    1
    60    60     6    1
    61    61    60    1
    62    62    60    1
    63    63    62    1
    64    64    62    1
    65    65    62    1
    66    66    60    1
    67    67    66    1
    68    68    66    1
    69    69    66    1
    70    70    10    1
    71    71    13    1
    72    72    24    1
    73    73    27    1
    74    74    59    1
    75    75    59    1
    76    76    59    1
    77     5    44    1
    78    13    14   ar
    79    20    22   ar
    80    23    30   ar
    81    28    30   ar
    82    32    34    2
    83    36    37   ar
    84    41    43   ar
    85    45    47    2
@<TRIPOS>SUBSTRUCTURE
     1 RES1        1 GROUP             0 ****  ****    0  
