@<TRIPOS>MOLECULE
02
    86    97     1     0     0
SMALL
NO_CHARGES
****
Generated from the CSD

@<TRIPOS>ATOM
     1 Ir2      4.9212   8.9382  24.4923   Ir        1 RES1   0.0000
     2 O2       4.1966  12.2308  24.6888   O.3       1 RES1   0.0000
     3 N8       6.0028  10.7780  24.5690   N.ar      1 RES1   0.0000
     4 N9       6.9145   8.2946  24.3767   N.2       1 RES1   0.0000
     5 N10      7.5031   7.0860  24.3332   N.2       1 RES1   0.0000
     6 N11      5.0636   9.3212  21.3110   N.pl3     1 RES1   0.0000
     7 N12      3.8401   7.7064  22.0917   N.pl3     1 RES1   0.0000
     8 N13      4.0917   7.1816  26.6586   N.pl3     1 RES1   0.0000
     9 N14      5.2326   8.7521  27.6492   N.pl3     1 RES1   0.0000
    10 C42      3.1514   9.9570  24.7585   C.ar      1 RES1   0.0000
    11 C43      1.8946   9.3478  24.9079   C.ar      1 RES1   0.0000
    12 H33      1.8372   8.4008  24.8574   H         1 RES1   0.0000
    13 C44      0.7463  10.0685  25.1227   C.ar      1 RES1   0.0000
    14 C45      0.7313  11.4321  25.2176   C.ar      1 RES1   0.0000
    15 H34     -0.0724  11.9142  25.3685   H         1 RES1   0.0000
    16 C46      1.9416  12.0673  25.0813   C.ar      1 RES1   0.0000
    17 H35      1.9819  13.0150  25.1434   H         1 RES1   0.0000
    18 C47      3.1080  11.3483  24.8568   C.ar      1 RES1   0.0000
    19 C48      5.5057  12.0075  24.5747   C.ar      1 RES1   0.0000
    20 C49      6.2788  13.1623  24.4366   C.ar      1 RES1   0.0000
    21 H36      5.8734  14.0206  24.3919   H         1 RES1   0.0000
    22 C50      7.6282  13.0192  24.3675   C.ar      1 RES1   0.0000
    23 H37      8.1835  13.7889  24.3067   H         1 RES1   0.0000
    24 C51      8.2047  11.7487  24.3858   C.ar      1 RES1   0.0000
    25 H38      9.1473  11.6452  24.3432   H         1 RES1   0.0000
    26 C52      7.3842  10.6493  24.4658   C.ar      1 RES1   0.0000
    27 C53      7.8478   9.2851  24.4117   C.2       1 RES1   0.0000
    28 C54      9.1189   8.7091  24.3694   C.2       1 RES1   0.0000
    29 H39      9.9664   9.1395  24.3706   H         1 RES1   0.0000
    30 C55      8.8331   7.3290  24.3256   C.2       1 RES1   0.0000
    31 C56      9.7990   6.2468  24.2538   C.3       1 RES1   0.0000
    32 C57      4.6364   8.7778  22.4638   C.3       1 RES1   0.0000
    33 C58      4.5711   8.6247  20.2048   C.ar      1 RES1   0.0000
    34 C59      4.7651   8.8111  18.8448   C.ar      1 RES1   0.0000
    35 H40      5.3101   9.5161  18.5137   H         1 RES1   0.0000
    36 C60      4.1382   7.9377  18.0011   C.ar      1 RES1   0.0000
    37 H41      4.2300   8.0511  17.0625   H         1 RES1   0.0000
    38 C61      3.3669   6.8851  18.4873   C.ar      1 RES1   0.0000
    39 H42      2.9638   6.2861  17.8687   H         1 RES1   0.0000
    40 C62      3.1698   6.6838  19.8409   C.ar      1 RES1   0.0000
    41 H43      2.6408   5.9633  20.1658   H         1 RES1   0.0000
    42 C63      3.7783   7.5818  20.7013   C.ar      1 RES1   0.0000
    43 C64      3.9230   7.2377  24.3578   C.ar      1 RES1   0.0000
    44 C65      3.4059   6.8408  23.1399   C.ar      1 RES1   0.0000
    45 C66      2.5377   5.7719  23.0352   C.ar      1 RES1   0.0000
    46 H44      2.1783   5.5288  22.1891   H         1 RES1   0.0000
    47 C67      2.1891   5.0461  24.1850   C.ar      1 RES1   0.0000
    48 C68      2.7093   5.4427  25.4303   C.ar      1 RES1   0.0000
    49 H45      2.4806   4.9681  26.2204   H         1 RES1   0.0000
    50 C69      3.5682   6.5425  25.4878   C.ar      1 RES1   0.0000
    51 C70      4.8075   8.3505  26.4419   C.3       1 RES1   0.0000
    52 C71      4.0602   6.8814  28.0231   C.ar      1 RES1   0.0000
    53 C72      3.4755   5.8605  28.7664   C.ar      1 RES1   0.0000
    54 H46      2.9742   5.1688  28.3502   H         1 RES1   0.0000
    55 C73      3.6574   5.8950  30.1395   C.ar      1 RES1   0.0000
    56 H47      3.2739   5.2101  30.6716   H         1 RES1   0.0000
    57 C74      4.3871   6.9120  30.7620   C.ar      1 RES1   0.0000
    58 H48      4.4858   6.9069  31.7061   H         1 RES1   0.0000
    59 C75      4.9682   7.9259  30.0236   C.ar      1 RES1   0.0000
    60 H49      5.4703   8.6160  30.4404   H         1 RES1   0.0000
    61 C76      4.7866   7.8907  28.6493   C.ar      1 RES1   0.0000
    62 C77      6.0362  10.4015  21.2006   C.3       1 RES1   0.0000
    63 H50      6.0258  10.9355  22.0218   H         1 RES1   0.0000
    64 H51      5.8062  10.9707  20.4366   H         1 RES1   0.0000
    65 H52      6.9302  10.0230  21.0695   H         1 RES1   0.0000
    66 C78      1.1943   3.8886  24.0231   C.3       1 RES1   0.0000
    67 C79      1.6287   2.9643  22.8858   C.3       1 RES1   0.0000
    68 H53      2.5581   2.6858  23.0288   H         1 RES1   0.0000
    69 H54      1.5581   3.4410  22.0309   H         1 RES1   0.0000
    70 H55      1.0491   2.1726  22.8676   H         1 RES1   0.0000
    71 C80     -0.1755   4.4715  23.6742   C.3       1 RES1   0.0000
    72 H56     -0.8088   3.7410  23.5126   H         1 RES1   0.0000
    73 H57     -0.1008   5.0239  22.8676   H         1 RES1   0.0000
    74 H58     -0.4961   5.0239  24.4193   H         1 RES1   0.0000
    75 C81      1.0736   3.0748  25.3089   C.3       1 RES1   0.0000
    76 H59      1.9638   2.7872  25.5998   H         1 RES1   0.0000
    77 H60      0.5142   2.2864  25.1464   H         1 RES1   0.0000
    78 H61      0.6641   3.6252  26.0075   H         1 RES1   0.0000
    79 C82      6.0333   9.9564  27.8759   C.3       1 RES1   0.0000
    80 H62      6.6124  10.1161  27.0997   H         1 RES1   0.0000
    81 H63      6.5866   9.8347  28.6758   H         1 RES1   0.0000
    82 H64      5.4393  10.7245  28.0034   H         1 RES1   0.0000
    83 F5      -0.4354   9.3874  25.2426   F         1 RES1   0.0000
    84 F6       9.7959   5.4605  25.4148   F         1 RES1   0.0000
    85 F7       9.5659   5.2846  23.3939   F         1 RES1   0.0000
    86 F8      11.0646   6.5737  24.1850   F         1 RES1   0.0000
@<TRIPOS>BOND
     1     1     3    1
     2     2    18    1
     3     3    19   ar
     4     4     1    1
     5     5     4    1
     6     6    32    1
     7     7    32    1
     8     8    50    1
     9     9    51    1
    10    10     1    1
    11    11    10   ar
    12    12    11    1
    13    13    11   ar
    14    14    13   ar
    15    15    14    1
    16    16    14   ar
    17    17    16    1
    18    18    10   ar
    19    19     2    1
    20    20    19   ar
    21    21    20    1
    22    22    20   ar
    23    23    22    1
    24    24    22   ar
    25    25    24    1
    26    26     3   ar
    27    27     4    1
    28    28    27    2
    29    29    28    1
    30    30     5    2
    31    31    30    1
    32    32     1    1
    33    33     6    1
    34    34    33   ar
    35    35    34    1
    36    36    34   ar
    37    37    36    1
    38    38    36   ar
    39    39    38    1
    40    40    38   ar
    41    41    40    1
    42    42     7    1
    43    43     1    1
    44    44     7    1
    45    45    44   ar
    46    46    45    1
    47    47    45   ar
    48    48    47   ar
    49    49    48    1
    50    50    43   ar
    51    51     1    1
    52    52     8    1
    53    53    52   ar
    54    54    53    1
    55    55    53   ar
    56    56    55    1
    57    57    55   ar
    58    58    57    1
    59    59    57   ar
    60    60    59    1
    61    61     9    1
    62    62     6    1
    63    63    62    1
    64    64    62    1
    65    65    62    1
    66    66    47    1
    67    67    66    1
    68    68    67    1
    69    69    67    1
    70    70    67    1
    71    71    66    1
    72    72    71    1
    73    73    71    1
    74    74    71    1
    75    75    66    1
    76    76    75    1
    77    77    75    1
    78    78    75    1
    79    79     9    1
    80    80    79    1
    81    81    79    1
    82    82    79    1
    83    83    13    1
    84    84    31    1
    85    85    31    1
    86    86    31    1
    87     8    51    1
    88    16    18   ar
    89    24    26   ar
    90    26    27    1
    91    28    30    1
    92    33    42   ar
    93    40    42   ar
    94    43    44   ar
    95    48    50   ar
    96    52    61   ar
    97    59    61   ar
@<TRIPOS>SUBSTRUCTURE
     1 RES1        1 GROUP             0 ****  ****    0  
