@<TRIPOS>MOLECULE
01
   107   118     1     0     0
SMALL
NO_CHARGES
****
Generated from the CSD

@<TRIPOS>ATOM
     1 Ir1      6.8706   4.9263   7.9920   Ir        1 RES1   0.0000
     2 F1       3.1190  -1.2442   3.7594   F         1 RES1   0.0000
     3 F2       1.2308  -0.8273   4.6339   F         1 RES1   0.0000
     4 F3       1.7726   0.0968   2.7999   F         1 RES1   0.0000
     5 F4       5.9629   6.9778   1.8732   F         1 RES1   0.0000
     6 F5       4.5181   7.1985   3.4439   F         1 RES1   0.0000
     7 F6       5.8403   8.8100   2.9729   F         1 RES1   0.0000
     8 F7       3.7359   2.6295  13.1817   F         1 RES1   0.0000
     9 F8       5.0562   4.0126  14.1433   F         1 RES1   0.0000
    10 F9       3.7024   4.6952  12.6291   F         1 RES1   0.0000
    11 O1       9.7023   5.9196   6.6779   O.3       1 RES1   0.0000
    12 O2       8.2836   2.2093   9.1656   O.3       1 RES1   0.0000
    13 N1       5.8582   2.3759   6.2982   N.pl3     1 RES1   0.0000
    14 N2       2.4220   3.0006   5.7848   N.ar      1 RES1   0.0000
    15 N3       4.4068   3.9079   6.8302   N.pl3     1 RES1   0.0000
    16 N4       6.0826   7.4207   9.2461   N.pl3     1 RES1   0.0000
    17 N5       5.5021   9.4974  10.3437   N.ar      1 RES1   0.0000
    18 N6       8.1713   7.2375   9.8259   N.pl3     1 RES1   0.0000
    19 N7       8.0506   7.2090   3.7583   N.ar      1 RES1   0.0000
    20 N8       8.9065   4.0869   7.9136   N.ar      1 RES1   0.0000
    21 N9       6.3269   2.3572  12.1831   N.ar      1 RES1   0.0000
    22 C1       5.7469   3.5566   6.9498   C.3       1 RES1   0.0000
    23 C2       4.6341   1.9761   5.7739   C.ar      1 RES1   0.0000
    24 C3       4.1857   0.8704   5.0701   C.ar      1 RES1   0.0000
    25 H1       4.7638   0.1581   4.8263   H         1 RES1   0.0000
    26 C4       2.8447   0.8725   4.7460   C.ar      1 RES1   0.0000
    27 C5       2.0157   1.9303   5.1039   C.ar      1 RES1   0.0000
    28 H2       1.1032   1.8882   4.8461   H         1 RES1   0.0000
    29 C6       3.7168   2.9715   6.1035   C.ar      1 RES1   0.0000
    30 C7       4.0006   5.1287   7.4480   C.ar      1 RES1   0.0000
    31 C8       2.7295   5.6889   7.4578   C.ar      1 RES1   0.0000
    32 H3       2.0027   5.2450   7.0381   H         1 RES1   0.0000
    33 C9       2.5423   6.9091   8.0920   C.ar      1 RES1   0.0000
    34 C10      3.6283   7.5629   8.6935   C.ar      1 RES1   0.0000
    35 H4       3.5124   8.4052   9.1197   H         1 RES1   0.0000
    36 C11      4.8748   6.9549   8.6533   C.ar      1 RES1   0.0000
    37 C12      5.0825   5.7368   8.0528   C.ar      1 RES1   0.0000
    38 C13      6.3496   8.5271  10.0315   C.ar      1 RES1   0.0000
    39 C14      6.0472  10.4407  11.1302   C.ar      1 RES1   0.0000
    40 H5       5.5021  11.1737  11.3914   H         1 RES1   0.0000
    41 C15      7.3657  10.4116  11.5892   C.ar      1 RES1   0.0000
    42 C16      8.2151   9.3746  11.2357   C.ar      1 RES1   0.0000
    43 H6       9.1137   9.3314  11.5433   H         1 RES1   0.0000
    44 C17      7.6845   8.4125  10.4144   C.ar      1 RES1   0.0000
    45 C18      7.2073   6.6301   9.1004   C.3       1 RES1   0.0000
    46 C19      7.1476   1.6929   6.0709   C.3       1 RES1   0.0000
    47 H7       7.8554   2.2401   6.5154   H         1 RES1   0.0000
    48 C20      7.1661   0.3186   6.7203   C.3       1 RES1   0.0000
    49 H8       8.0633  -0.0687   6.6363   H         1 RES1   0.0000
    50 H9       6.5166  -0.2627   6.2739   H         1 RES1   0.0000
    51 H10      6.9344   0.4023   7.6683   H         1 RES1   0.0000
    52 C21      7.4623   1.6679   4.5828   C.3       1 RES1   0.0000
    53 H11      8.3638   1.3094   4.4457   H         1 RES1   0.0000
    54 H12      7.4143   2.5784   4.2239   H         1 RES1   0.0000
    55 H13      6.8110   1.0997   4.1202   H         1 RES1   0.0000
    56 C22      2.2564  -0.2665   3.9824   C.3       1 RES1   0.0000
    57 C23      1.1724   7.5276   8.1910   C.3       1 RES1   0.0000
    58 C24      0.0658   6.6863   7.5981   C.3       1 RES1   0.0000
    59 H14     -0.7694   7.1989   7.6022   H         1 RES1   0.0000
    60 H15     -0.0472   5.8718   8.1297   H         1 RES1   0.0000
    61 H16      0.2978   6.4469   6.6767   H         1 RES1   0.0000
    62 C25      1.1806   8.9206   7.6068   C.3       1 RES1   0.0000
    63 H17      0.2706   9.2829   7.6142   H         1 RES1   0.0000
    64 H18      1.5117   8.8863   6.6850   H         1 RES1   0.0000
    65 H19      1.7660   9.4988   8.1414   H         1 RES1   0.0000
    66 C26      0.8248   7.7358   9.7378   C.3       1 RES1   0.0000
    67 H20     -0.0834   8.0938   9.8211   H         1 RES1   0.0000
    68 H21      1.4619   8.3663  10.1352   H         1 RES1   0.0000
    69 H22      0.8820   6.8764  10.2046   H         1 RES1   0.0000
    70 C27      7.8161  11.4777  12.5258   C.3       1 RES1   0.0000
    71 F10      7.1723  11.5089  13.5820   F         1 RES1   0.0000
    72 F11      9.1222  11.4756  12.7597   F         1 RES1   0.0000
    73 F12      7.6166  12.7250  11.9210   F         1 RES1   0.0000
    74 C28      9.5315   6.7009  10.0195   C.3       1 RES1   0.0000
    75 H23      9.5894   5.8520   9.4946   H         1 RES1   0.0000
    76 C29      9.7557   6.3406  11.4772   C.3       1 RES1   0.0000
    77 H24     10.6344   5.9171  11.5778   H         1 RES1   0.0000
    78 H25      9.0583   5.7180  11.7714   H         1 RES1   0.0000
    79 H26      9.7207   7.1527  12.0245   H         1 RES1   0.0000
    80 C30     10.5682   7.6546   9.4430   C.3       1 RES1   0.0000
    81 H27     11.4600   7.2537   9.5203   H         1 RES1   0.0000
    82 H28     10.5471   8.4999   9.9379   H         1 RES1   0.0000
    83 H29     10.3682   7.8238   8.4985   H         1 RES1   0.0000
    84 C31      7.3039   5.8909   6.1873   C.ar      1 RES1   0.0000
    85 C32      6.3742   6.3219   5.2464   C.ar      1 RES1   0.0000
    86 H30      5.4484   6.1740   5.4019   H         1 RES1   0.0000
    87 C33      6.7733   6.9549   4.0944   C.ar      1 RES1   0.0000
    88 C34      8.9474   6.7904   4.6437   C.ar      1 RES1   0.0000
    89 H31      9.8690   6.9275   4.4555   H         1 RES1   0.0000
    90 C35      8.6039   6.1720   5.8174   C.ar      1 RES1   0.0000
    91 C36      9.9141   4.7352   7.2685   C.ar      1 RES1   0.0000
    92 C37     11.2202   4.2875   7.2772   C.ar      1 RES1   0.0000
    93 H32     11.9045   4.7757   6.8337   H         1 RES1   0.0000
    94 C38     11.5102   3.1235   7.9386   C.ar      1 RES1   0.0000
    95 H33     12.3978   2.7877   7.9450   H         1 RES1   0.0000
    96 C39     10.5168   2.4467   8.5913   C.ar      1 RES1   0.0000
    97 H34     10.7020   1.6434   9.0613   H         1 RES1   0.0000
    98 C40      9.2292   2.9652   8.5478   C.ar      1 RES1   0.0000
    99 C41      7.3554   2.7591  10.0750   C.ar      1 RES1   0.0000
   100 C42      6.5882   3.8752   9.7759   C.ar      1 RES1   0.0000
   101 C43      5.6687   4.1854  10.7636   C.ar      1 RES1   0.0000
   102 H35      5.0976   4.9374  10.6543   H         1 RES1   0.0000
   103 C44      5.7839   7.4776   3.0991   C.3       1 RES1   0.0000
   104 C45      7.2258   2.0427  11.2596   C.ar      1 RES1   0.0000
   105 H36      7.8034   1.3041  11.4135   H         1 RES1   0.0000
   106 C46      5.5700   3.4192  11.9003   C.ar      1 RES1   0.0000
   107 C47      4.5189   3.6961  12.9620   C.3       1 RES1   0.0000
@<TRIPOS>BOND
     1     1    20    1
     2     2    56    1
     3     3    56    1
     4     4    56    1
     5     5   103    1
     6     6   103    1
     7     7   103    1
     8     8   107    1
     9     9   107    1
    10    10   107    1
    11    11    90    1
    12    12    98    1
    13    13    22    1
    14    14    27   ar
    15    15    22    1
    16    16    36    1
    17    17    38   ar
    18    18    44    1
    19    19    87   ar
    20    20    91   ar
    21    21   104   ar
    22    22     1    1
    23    23    13    1
    24    24    23   ar
    25    25    24    1
    26    26    24   ar
    27    27    26   ar
    28    28    27    1
    29    29    14   ar
    30    30    15    1
    31    31    30   ar
    32    32    31    1
    33    33    31   ar
    34    34    33   ar
    35    35    34    1
    36    36    34   ar
    37    37     1    1
    38    38    16    1
    39    39    17   ar
    40    40    39    1
    41    41    39   ar
    42    42    41   ar
    43    43    42    1
    44    44    38   ar
    45    45     1    1
    46    46    13    1
    47    47    46    1
    48    48    46    1
    49    49    48    1
    50    50    48    1
    51    51    48    1
    52    52    46    1
    53    53    52    1
    54    54    52    1
    55    55    52    1
    56    56    26    1
    57    57    33    1
    58    58    57    1
    59    59    58    1
    60    60    58    1
    61    61    58    1
    62    62    57    1
    63    63    62    1
    64    64    62    1
    65    65    62    1
    66    66    57    1
    67    67    66    1
    68    68    66    1
    69    69    66    1
    70    70    41    1
    71    71    70    1
    72    72    70    1
    73    73    70    1
    74    74    18    1
    75    75    74    1
    76    76    74    1
    77    77    76    1
    78    78    76    1
    79    79    76    1
    80    80    74    1
    81    81    80    1
    82    82    80    1
    83    83    80    1
    84    84     1    1
    85    85    84   ar
    86    86    85    1
    87    87    85   ar
    88    88    19   ar
    89    89    88    1
    90    90    84   ar
    91    91    11    1
    92    92    91   ar
    93    93    92    1
    94    94    92   ar
    95    95    94    1
    96    96    94   ar
    97    97    96    1
    98    98    20   ar
    99    99    12    1
   100   100     1    1
   101   101   100   ar
   102   102   101    1
   103   103    87    1
   104   104    99   ar
   105   105   104    1
   106   106    21   ar
   107   107   106    1
   108    15    29    1
   109    16    45    1
   110    18    45    1
   111    23    29   ar
   112    30    37   ar
   113    36    37   ar
   114    42    44   ar
   115    88    90   ar
   116    96    98   ar
   117    99   100   ar
   118   101   106   ar
@<TRIPOS>SUBSTRUCTURE
     1 RES1        1 GROUP             0 ****  ****    0  
