@<TRIPOS>MOLECULE
02
    84    93     1     0     0
SMALL
NO_CHARGES
****
Generated from the CSD

@<TRIPOS>ATOM
     1 Ir2      5.0007   7.5926   5.0937   Ir        1 RES1   0.0000
     2 N9       6.6144   7.1068   6.2628   N.ar      1 RES1   0.0000
     3 N10      8.9666   6.9501   6.3737   N.ar      1 RES1   0.0000
     4 N11      4.1860   7.4153   7.0525   N.2       1 RES1   0.0000
     5 N12      2.9823   7.6185   7.6004   N.2       1 RES1   0.0000
     6 N13      5.6472  10.6389   5.8744   N.pl3     1 RES1   0.0000
     7 N14      4.1382  10.2809   4.3951   N.pl3     1 RES1   0.0000
     8 N15      3.2842   5.8703   3.4870   N.pl3     1 RES1   0.0000
     9 N16      4.4189   4.4688   4.6434   N.pl3     1 RES1   0.0000
    10 C41      6.4701   7.5809   3.7011   C.ar      1 RES1   0.0000
    11 C42      6.3892   7.7814   2.3119   C.ar      1 RES1   0.0000
    12 H45      5.5515   7.9562   1.9000   H         1 RES1   0.0000
    13 C43      7.5352   7.7222   1.5558   C.ar      1 RES1   0.0000
    14 C44      8.7951   7.4833   2.0671   C.ar      1 RES1   0.0000
    15 H46      9.5606   7.4501   1.5046   H         1 RES1   0.0000
    16 C45      8.8975   7.2963   3.4293   C.ar      1 RES1   0.0000
    17 H47      9.7500   7.1444   3.8200   H         1 RES1   0.0000
    18 C46      7.7618   7.3263   4.2380   C.ar      1 RES1   0.0000
    19 C47      7.8386   7.0985   5.6853   C.ar      1 RES1   0.0000
    20 C48      8.8605   6.7677   7.7131   C.ar      1 RES1   0.0000
    21 C49      7.6227   6.7175   8.3487   C.ar      1 RES1   0.0000
    22 H48      7.5622   6.5430   9.2793   H         1 RES1   0.0000
    23 C50      6.4771   6.9298   7.5882   C.ar      1 RES1   0.0000
    24 C51      5.0940   7.0750   8.0190   C.2       1 RES1   0.0000
    25 C52      4.4450   7.0479   9.2483   C.2       1 RES1   0.0000
    26 H49      4.8075   6.8412  10.1011   H         1 RES1   0.0000
    27 C53      3.1476   7.3941   8.9300   C.2       1 RES1   0.0000
    28 C54      1.9759   7.5425   9.8247   C.3       1 RES1   0.0000
    29 C55     10.1765   6.7266   8.4673   C.3       1 RES1   0.0000
    30 C56     11.1809   5.8637   7.7082   C.3       1 RES1   0.0000
    31 H50     10.8174   4.9610   7.5979   H         1 RES1   0.0000
    32 H51     12.0201   5.8192   8.2121   H         1 RES1   0.0000
    33 H52     11.3480   6.2569   6.8269   H         1 RES1   0.0000
    34 C57     10.6860   8.1723   8.5586   C.3       1 RES1   0.0000
    35 H53     10.8120   8.5308   7.6554   H         1 RES1   0.0000
    36 H54     11.5388   8.1885   9.0384   H         1 RES1   0.0000
    37 H55     10.0304   8.7190   9.0384   H         1 RES1   0.0000
    38 C58     10.0139   6.1429   9.8767   C.3       1 RES1   0.0000
    39 H56      9.4260   6.7214  10.4038   H         1 RES1   0.0000
    40 H57     10.8913   6.0857  10.3088   H         1 RES1   0.0000
    41 H58      9.6218   5.2471   9.8161   H         1 RES1   0.0000
    42 C59      5.0329   9.6389   5.2138   C.3       1 RES1   0.0000
    43 C60      5.1496  11.8729   5.4759   C.2       1 RES1   0.0000
    44 H59      5.4243  12.7216   5.8017   H         1 RES1   0.0000
    45 C61      4.2096  11.6487   4.5486   C.2       1 RES1   0.0000
    46 H60      3.6954  12.3010   4.0873   H         1 RES1   0.0000
    47 C62      3.2897   9.4523   3.6015   C.ar      1 RES1   0.0000
    48 C63      2.3273   9.8626   2.6888   C.ar      1 RES1   0.0000
    49 H61      2.1582  10.7876   2.5452   H         1 RES1   0.0000
    50 C64      1.6115   8.8907   1.9853   C.ar      1 RES1   0.0000
    51 C65      1.8916   7.5315   2.2047   C.ar      1 RES1   0.0000
    52 H62      1.4247   6.8608   1.7211   H         1 RES1   0.0000
    53 C66      2.8537   7.1823   3.1306   C.ar      1 RES1   0.0000
    54 C67      3.5560   8.1254   3.8527   C.ar      1 RES1   0.0000
    55 C68      2.8301   4.6141   3.1373   C.2       1 RES1   0.0000
    56 H63      2.1501   4.4109   2.5076   H         1 RES1   0.0000
    57 C69      3.5427   3.7351   3.8650   C.2       1 RES1   0.0000
    58 H64      3.4600   2.7898   3.8465   H         1 RES1   0.0000
    59 C70      4.2827   5.7872   4.4350   C.3       1 RES1   0.0000
    60 C71      6.6597  10.4443   6.9106   C.3       1 RES1   0.0000
    61 H65      6.2236  10.1739   7.7460   H         1 RES1   0.0000
    62 H66      7.1471  11.2815   7.0522   H         1 RES1   0.0000
    63 H67      7.2854   9.7460   6.6280   H         1 RES1   0.0000
    64 C72      0.5338   9.2594   0.9595   C.3       1 RES1   0.0000
    65 C73      0.2170  10.7411   0.9511   C.3       1 RES1   0.0000
    66 H68      1.0199  11.2448   0.6982   H         1 RES1   0.0000
    67 H69     -0.0751  11.0174   1.8448   H         1 RES1   0.0000
    68 H70     -0.4964  10.9196   0.3049   H         1 RES1   0.0000
    69 C74      0.9791   8.8249  -0.4306   C.3       1 RES1   0.0000
    70 H71      0.2604   9.0002  -1.0737   H         1 RES1   0.0000
    71 H72      1.1854   7.8657  -0.4220   H         1 RES1   0.0000
    72 H73      1.7783   9.3279  -0.6893   H         1 RES1   0.0000
    73 C75     -0.7783   8.5244   1.3057   C.3       1 RES1   0.0000
    74 H74     -1.0807   8.7973   2.1961   H         1 RES1   0.0000
    75 H75     -0.6234   7.5576   1.2947   H         1 RES1   0.0000
    76 H76     -1.4640   8.7533   0.6429   H         1 RES1   0.0000
    77 C76      5.3677   3.8871   5.5797   C.3       1 RES1   0.0000
    78 H77      6.2341   3.7727   5.1367   H         1 RES1   0.0000
    79 H78      5.0365   3.0147   5.8791   H         1 RES1   0.0000
    80 H79      5.4698   4.4818   6.3519   H         1 RES1   0.0000
    81 F5       7.4179   7.8970   0.2050   F         1 RES1   0.0000
    82 F6       1.0225   6.6390   9.5886   F         1 RES1   0.0000
    83 F7       1.3528   8.7058   9.7048   F         1 RES1   0.0000
    84 F8       2.3101   7.3779  11.0914   F         1 RES1   0.0000
@<TRIPOS>BOND
     1     1     2    1
     2     2    19   ar
     3     3    19   ar
     4     4     1    1
     5     5     4    1
     6     6    42    1
     7     7    42    1
     8     8    53    1
     9     9    57    1
    10    10     1    1
    11    11    10   ar
    12    12    11    1
    13    13    11   ar
    14    14    13   ar
    15    15    14    1
    16    16    14   ar
    17    17    16    1
    18    18    10   ar
    19    19    18    1
    20    20     3   ar
    21    21    20   ar
    22    22    21    1
    23    23     2   ar
    24    24     4    1
    25    25    24    2
    26    26    25    1
    27    27     5    2
    28    28    27    1
    29    29    20    1
    30    30    29    1
    31    31    30    1
    32    32    30    1
    33    33    30    1
    34    34    29    1
    35    35    34    1
    36    36    34    1
    37    37    34    1
    38    38    29    1
    39    39    38    1
    40    40    38    1
    41    41    38    1
    42    42     1    1
    43    43     6    1
    44    44    43    1
    45    45     7    1
    46    46    45    1
    47    47     7    1
    48    48    47   ar
    49    49    48    1
    50    50    48   ar
    51    51    50   ar
    52    52    51    1
    53    53    51   ar
    54    54     1    1
    55    55     8    1
    56    56    55    1
    57    57    55    2
    58    58    57    1
    59    59     1    1
    60    60     6    1
    61    61    60    1
    62    62    60    1
    63    63    60    1
    64    64    50    1
    65    65    64    1
    66    66    65    1
    67    67    65    1
    68    68    65    1
    69    69    64    1
    70    70    69    1
    71    71    69    1
    72    72    69    1
    73    73    64    1
    74    74    73    1
    75    75    73    1
    76    76    73    1
    77    77     9    1
    78    78    77    1
    79    79    77    1
    80    80    77    1
    81    81    13    1
    82    82    28    1
    83    83    28    1
    84    84    28    1
    85     8    59    1
    86     9    59    1
    87    16    18   ar
    88    21    23   ar
    89    23    24    1
    90    25    27    1
    91    43    45    2
    92    47    54   ar
    93    53    54   ar
@<TRIPOS>SUBSTRUCTURE
     1 RES1        1 GROUP             0 ****  ****    0  
